pglib_opf_case10192_epigrids/pglib_opf_case10192_epigrids_10regions.m
% -------------------------------------------------------------------------
% Partitioned MATPOWER Case File
% Copyright (c) 2025 Milad Hasanzadeh
% Generated on: 2026-05-21
% This file contains partitioned data for 10 regions


% -------------------- mpc_regionR1 --------------------

mpc_regionR1.version = '2';
mpc_regionR1.baseMVA = 100.0000;
mpc_regionR1.bus = [
%	bus_i       type        Pd          Qd          Gs          Bs          area        Vm          Va          baseKV      zone        Vmax        Vmin        
	 1	 2	 0	 0	 0	 0	 17	 1	 0	 765	 1	 1.1	 0.9;
	 2	 2	 0	 0	 0	 0	 17	 1	 0	 345	 1	 1.1	 0.9;
	 3	 2	 0	 0	 0	 0	 17	 1	 0	 345	 1	 1.1	 0.9;
	 4	 2	 0	 0	 0	 0	 17	 1	 0	 138	 1	 1.1	 0.9;
	 5	 1	 0	 0	 0	 0	 17	 1	 0	 345	 1	 1.1	 0.9;
	 6	 2	 0	 0	 0	 0	 17	 1	 0	 345	 1	 1.1	 0.9;
	 7	 2	 0	 0	 0	 0	 17	 1	 0	 138	 1	 1.1	 0.9;
	 8	 1	 0	 0	 0	 0	 17	 1	 0	 138	 1	 1.1	 0.9;
	 9	 2	 0	 0	 0	 0	 17	 1	 0	 138	 1	 1.1	 0.9;
	 10	 2	 0	 0	 0	 0	 17	 1	 0	 69	 1	 1.1	 0.9;
	 11	 2	 0	 0	 0	 0	 17	 1	 0	 69	 1	 1.1	 0.9;
	 12	 1	 3.37	 2.03	 0	 0	 17	 1	 0	 138	 1	 1.1	 0.9;
	 13	 1	 0	 0	 0	 0	 17	 1	 0	 138	 1	 1.1	 0.9;
	 14	 1	 3.99	 1.99	 0	 0	 17	 1	 0	 69	 1	 1.1	 0.9;
	 15	 1	 2.76	 0.64	 0	 0	 17	 1	 0	 69	 1	 1.1	 0.9;
	 16	 1	 2.66	 0.61	 0	 0	 17	 1	 0	 69	 1	 1.1	 0.9;
	 17	 1	 1.19	 0.28	 0	 0	 17	 1	 0	 69	 1	 1.1	 0.9;
	 18	 1	 1.57	 0.36	 0	 0	 17	 1	 0	 69	 1	 1.1	 0.9;
	 19	 1	 3.4	 0.79	 0	 0	 17	 1	 0	 69	 1	 1.1	 0.9;
	 20	 1	 0	 0	 0	 0	 17	 1	 0	 138	 1	 1.1	 0.9;
	 21	 1	 6.56	 1.52	 0	 0	 17	 1	 0	 69	 1	 1.1	 0.9;
	 22	 1	 4.37	 1.01	 0	 0	 17	 1	 0	 69	 1	 1.1	 0.9;
	 23	 1	 1.41	 0.32	 0	 0	 17	 1	 0	 69	 1	 1.1	 0.9;
	 24	 1	 1.2	 0.28	 0	 0	 17	 1	 0	 69	 1	 1.1	 0.9;
	 25	 1	 1.71	 0.4	 0	 0	 17	 1	 0	 69	 1	 1.1	 0.9;
	 26	 1	 6.11	 1.42	 0	 0	 17	 1	 0	 69	 1	 1.1	 0.9;
	 27	 1	 0	 0	 0	 0	 17	 1	 0	 138	 1	 1.1	 0.9;
	 28	 1	 3.91	 0.91	 0	 0	 17	 1	 0	 69	 1	 1.1	 0.9;
	 29	 1	 0	 0	 0	 0	 17	 1	 0	 138	 1	 1.1	 0.9;
	 30	 1	 0	 0	 0	 0	 17	 1	 0	 138	 1	 1.1	 0.9;
	 31	 1	 4.26	 1.01	 0	 0	 17	 1	 0	 69	 1	 1.1	 0.9;
	 32	 1	 1.12	 0.26	 0	 0	 17	 1	 0	 69	 1	 1.1	 0.9;
	 33	 1	 9.66	 4.79	 0	 0	 17	 1	 0	 138	 1	 1.1	 0.9;
	 34	 1	 4.28	 2.84	 0	 0	 17	 1	 0	 69	 1	 1.1	 0.9;
	 35	 1	 0	 0	 0	 0	 17	 1	 0	 345	 1	 1.1	 0.9;
	 36	 1	 0	 0	 0	 0	 17	 1	 0	 138	 1	 1.1	 0.9;
	 37	 1	 0	 0	 0	 0	 17	 1	 0	 138	 1	 1.1	 0.9;
	 38	 1	 2.24	 1.5	 0	 0	 17	 1	 0	 69	 1	 1.1	 0.9;
	 39	 1	 11.18	 6.36	 0	 0	 17	 1	 0	 138	 1	 1.1	 0.9;
	 40	 1	 0	 0	 0	 0	 17	 1	 0	 138	 1	 1.1	 0.9;
	 41	 1	 3.95	 2.57	 0	 0	 17	 1	 0	 69	 1	 1.1	 0.9;
	 42	 1	 4.91	 2.92	 0	 0	 17	 1	 0	 138	 1	 1.1	 0.9;
	 43	 1	 3.55	 2.49	 0	 0	 17	 1	 0	 69	 1	 1.1	 0.9;
	 44	 1	 0	 0	 0	 0	 17	 1	 0	 345	 1	 1.1	 0.9;
	 45	 1	 9.64	 5.73	 0	 0	 17	 1	 0	 69	 1	 1.1	 0.9;
	 46	 1	 0	 0	 0	 0	 17	 1	 0	 345	 1	 1.1	 0.9;
	 47	 1	 0	 0	 0	 0	 17	 1	 0	 345	 1	 1.1	 0.9;
	 48	 1	 0	 0	 0	 0	 17	 1	 0	 345	 1	 1.1	 0.9;
	 49	 1	 3.01	 2.37	 0	 0	 17	 1	 0	 69	 1	 1.1	 0.9;
	 50	 1	 1.87	 1.04	 0	 0	 17	 1	 0	 69	 1	 1.1	 0.9;
	 51	 1	 4.06	 2.3	 0	 0	 17	 1	 0	 69	 1	 1.1	 0.9;
	 52	 1	 0	 0	 0	 0	 17	 1	 0	 138	 1	 1.1	 0.9;
	 53	 1	 0	 0	 0	 0	 17	 1	 0	 345	 1	 1.1	 0.9;
	 54	 1	 2.8	 1.82	 0	 0	 17	 1	 0	 69	 1	 1.1	 0.9;
	 55	 1	 1.68	 1.13	 0	 0	 17	 1	 0	 69	 1	 1.1	 0.9;
	 56	 1	 6.81	 5.17	 0	 0	 17	 1	 0	 345	 1	 1.1	 0.9;
	 57	 1	 0.82	 0.53	 0	 0	 17	 1	 0	 69	 1	 1.1	 0.9;
	 58	 1	 6.64	 4.24	 0	 0	 17	 1	 0	 69	 1	 1.1	 0.9;
	 59	 1	 10.59	 6.13	 0	 0	 17	 1	 0	 69	 1	 1.1	 0.9;
	 60	 1	 9.69	 5.91	 0	 0	 17	 1	 0	 69	 1	 1.1	 0.9;
	 61	 1	 4.83	 3.3	 0	 0	 17	 1	 0	 345	 1	 1.1	 0.9;
	 62	 1	 5.78	 4	 0	 0	 17	 1	 0	 345	 1	 1.1	 0.9;
	 63	 1	 2.42	 1.84	 0	 0	 17	 1	 0	 69	 1	 1.1	 0.9;
	 64	 1	 2.44	 1.79	 0	 0	 17	 1	 0	 69	 1	 1.1	 0.9;
	 65	 1	 2.77	 1.94	 0	 0	 17	 1	 0	 69	 1	 1.1	 0.9;
	 66	 1	 4.67	 2.69	 0	 0	 17	 1	 0	 69	 1	 1.1	 0.9;
	 67	 1	 3.11	 2.03	 0	 0	 17	 1	 0	 69	 1	 1.1	 0.9;
	 68	 1	 6.65	 3.34	 0	 0	 17	 1	 0	 69	 1	 1.1	 0.9;
	 69	 1	 3.28	 1.88	 0	 0	 17	 1	 0	 69	 1	 1.1	 0.9;
	 70	 1	 0	 0	 0	 0	 17	 1	 0	 138	 1	 1.1	 0.9;
	 71	 1	 3.12	 2.31	 0	 0	 17	 1	 0	 69	 1	 1.1	 0.9;
	 72	 1	 4.14	 2.24	 0	 0	 17	 1	 0	 69	 1	 1.1	 0.9;
	 73	 1	 2.8	 1.79	 0	 0	 17	 1	 0	 69	 1	 1.1	 0.9;
	 74	 1	 1.76	 1.21	 0	 0	 17	 1	 0	 69	 1	 1.1	 0.9;
	 75	 1	 8.92	 5.31	 0	 0	 17	 1	 0	 69	 1	 1.1	 0.9;
	 76	 1	 4.44	 2.54	 0	 0	 17	 1	 0	 69	 1	 1.1	 0.9;
	 77	 1	 0	 0	 0	 0	 17	 1	 0	 138	 1	 1.1	 0.9;
	 78	 1	 9.06	 4.99	 0	 0	 17	 1	 0	 138	 1	 1.1	 0.9;
	 79	 1	 0	 0	 0	 0	 17	 1	 0	 138	 1	 1.1	 0.9;
	 80	 1	 3.22	 2.09	 0	 0	 17	 1	 0	 69	 1	 1.1	 0.9;
	 81	 1	 4.86	 3.45	 0	 0	 17	 1	 0	 69	 1	 1.1	 0.9;
	 82	 1	 3.52	 2.51	 0	 0	 17	 1	 0	 69	 1	 1.1	 0.9;
	 83	 1	 2.29	 1.32	 0	 0	 17	 1	 0	 69	 1	 1.1	 0.9;
	 84	 1	 4.41	 2.57	 0	 0	 17	 1	 0	 69	 1	 1.1	 0.9;
	 85	 1	 2.53	 2.01	 0	 0	 17	 1	 0	 69	 1	 1.1	 0.9;
	 86	 1	 3.26	 2.29	 0	 0	 17	 1	 0	 69	 1	 1.1	 0.9;
	 87	 1	 1.88	 1.3	 0	 0	 17	 1	 0	 69	 1	 1.1	 0.9;
	 88	 1	 0	 0	 0	 0	 17	 1	 0	 138	 1	 1.1	 0.9;
	 89	 1	 4.68	 3.07	 0	 0	 17	 1	 0	 69	 1	 1.1	 0.9;
	 90	 1	 4.51	 3.18	 0	 0	 17	 1	 0	 69	 1	 1.1	 0.9;
	 91	 1	 2.44	 1.88	 0	 0	 17	 1	 0	 69	 1	 1.1	 0.9;
	 92	 1	 0	 0	 0	 0	 17	 1	 0	 138	 1	 1.1	 0.9;
	 93	 1	 4.48	 2.69	 0	 0	 17	 1	 0	 69	 1	 1.1	 0.9;
	 94	 1	 0	 0	 0	 0	 17	 1	 0	 345	 1	 1.1	 0.9;
	 95	 1	 0	 0	 0	 0	 17	 1	 0	 138	 1	 1.1	 0.9;
	 96	 1	 0	 0	 0	 0	 17	 1	 0	 345	 1	 1.1	 0.9;
	 97	 1	 0	 0	 0	 0	 17	 1	 0	 345	 1	 1.1	 0.9;
	 98	 1	 0	 0	 0	 0	 17	 1	 0	 345	 1	 1.1	 0.9;
	 99	 1	 2.37	 1.7	 0	 0	 17	 1	 0	 138	 1	 1.1	 0.9;
	 100	 1	 3.53	 2.23	 0	 0	 17	 1	 0	 138	 1	 1.1	 0.9;
	 101	 1	 2.27	 1.76	 0	 0	 17	 1	 0	 69	 1	 1.1	 0.9;
	 102	 1	 3.94	 2.74	 0	 0	 17	 1	 0	 69	 1	 1.1	 0.9;
	 103	 1	 1.13	 0.92	 0	 0	 17	 1	 0	 69	 1	 1.1	 0.9;
	 104	 1	 0	 0	 0	 0	 17	 1	 0	 138	 1	 1.1	 0.9;
	 105	 1	 0	 0	 0	 0	 17	 1	 0	 345	 1	 1.1	 0.9;
	 106	 1	 0	 0	 0	 0	 17	 1	 0	 138	 1	 1.1	 0.9;
	 107	 1	 0	 0	 0	 0	 17	 1	 0	 138	 1	 1.1	 0.9;
	 108	 1	 2.33	 1.56	 0	 0	 17	 1	 0	 69	 1	 1.1	 0.9;
	 109	 1	 2.78	 1.73	 0	 0	 17	 1	 0	 69	 1	 1.1	 0.9;
	 110	 1	 17.67	 7.51	 0	 0	 17	 1	 0	 138	 1	 1.1	 0.9;
	 111	 1	 2.62	 1.58	 0	 0	 17	 1	 0	 69	 1	 1.1	 0.9;
	 112	 1	 0	 0	 0	 0	 17	 1	 0	 138	 1	 1.1	 0.9;
	 113	 1	 1.67	 1.06	 0	 0	 17	 1	 0	 138	 1	 1.1	 0.9;
	 114	 1	 0	 0	 0	 0	 17	 1	 0	 138	 1	 1.1	 0.9;
	 115	 1	 2.7	 2.07	 0	 0	 17	 1	 0	 138	 1	 1.1	 0.9;
	 116	 1	 2.73	 1.93	 0	 0	 17	 1	 0	 138	 1	 1.1	 0.9;
	 117	 1	 1.99	 1.16	 0	 0	 17	 1	 0	 69	 1	 1.1	 0.9;
	 118	 1	 5.26	 3.29	 0	 0	 17	 1	 0	 138	 1	 1.1	 0.9;
	 119	 1	 0	 0	 0	 0	 17	 1	 0	 138	 1	 1.1	 0.9;
	 120	 1	 2.77	 1.55	 0	 0	 17	 1	 0	 69	 1	 1.1	 0.9;
	 121	 1	 3.23	 2.12	 0	 0	 17	 1	 0	 69	 1	 1.1	 0.9;
	 122	 1	 2.76	 1.94	 0	 0	 17	 1	 0	 69	 1	 1.1	 0.9;
	 123	 1	 2.58	 1.63	 0	 0	 17	 1	 0	 69	 1	 1.1	 0.9;
	 124	 1	 2.94	 1.98	 0	 0	 17	 1	 0	 69	 1	 1.1	 0.9;
	 125	 1	 0	 0	 0	 0	 17	 1	 0	 138	 1	 1.1	 0.9;
	 126	 1	 0	 0	 0	 0	 17	 1	 0	 138	 1	 1.1	 0.9;
	 127	 1	 0	 0	 0	 0	 17	 1	 0	 138	 1	 1.1	 0.9;
	 128	 1	 3.06	 1.66	 0	 0	 17	 1	 0	 69	 1	 1.1	 0.9;
	 129	 1	 4.74	 2.87	 0	 0	 17	 1	 0	 138	 1	 1.1	 0.9;
	 130	 1	 2.94	 1.8	 0	 0	 17	 1	 0	 138	 1	 1.1	 0.9;
	 131	 1	 0	 0	 0	 0	 17	 1	 0	 345	 1	 1.1	 0.9;
	 132	 1	 0.87	 0.71	 0	 0	 17	 1	 0	 69	 1	 1.1	 0.9;
	 133	 1	 0	 0	 0	 0	 17	 1	 0	 138	 1	 1.1	 0.9;
	 134	 1	 4.63	 2.74	 0	 0	 17	 1	 0	 69	 1	 1.1	 0.9;
	 135	 1	 0	 0	 0	 0	 17	 1	 0	 138	 1	 1.1	 0.9;
	 136	 1	 8.04	 4.28	 0	 0	 17	 1	 0	 138	 1	 1.1	 0.9;
	 137	 1	 1.87	 1.36	 0	 0	 17	 1	 0	 138	 1	 1.1	 0.9;
	 138	 1	 7.2	 3.7	 0	 0	 17	 1	 0	 138	 1	 1.1	 0.9;
	 139	 1	 3.98	 3.01	 0	 0	 17	 1	 0	 69	 1	 1.1	 0.9;
	 140	 1	 6.01	 3.52	 0	 0	 17	 1	 0	 69	 1	 1.1	 0.9;
	 141	 1	 1.5	 1.05	 0	 0	 17	 1	 0	 69	 1	 1.1	 0.9;
	 142	 1	 2.16	 1.5	 0	 0	 17	 1	 0	 69	 1	 1.1	 0.9;
	 143	 1	 1.09	 0.6	 0	 0	 17	 1	 0	 69	 1	 1.1	 0.9;
	 144	 1	 2.18	 1.62	 0	 0	 17	 1	 0	 69	 1	 1.1	 0.9;
	 145	 1	 1.04	 0.73	 0	 0	 17	 1	 0	 69	 1	 1.1	 0.9;
	 146	 1	 1.49	 1.02	 0	 0	 17	 1	 0	 69	 1	 1.1	 0.9;
	 147	 1	 1.6	 1.03	 0	 0	 17	 1	 0	 69	 1	 1.1	 0.9;
	 148	 1	 4.9	 2.16	 0	 0	 17	 1	 0	 69	 1	 1.1	 0.9;
	 149	 1	 1.14	 0.66	 0	 0	 17	 1	 0	 69	 1	 1.1	 0.9;
	 150	 1	 1.25	 0.9	 0	 0	 17	 1	 0	 69	 1	 1.1	 0.9;
	 151	 1	 1.26	 0.79	 0	 0	 17	 1	 0	 69	 1	 1.1	 0.9;
	 152	 1	 1.88	 1.32	 0	 0	 17	 1	 0	 69	 1	 1.1	 0.9;
	 153	 1	 1.91	 1.16	 0	 0	 17	 1	 0	 69	 1	 1.1	 0.9;
	 154	 1	 1.64	 1.07	 0	 0	 17	 1	 0	 69	 1	 1.1	 0.9;
	 155	 1	 1.66	 0.96	 0	 0	 17	 1	 0	 69	 1	 1.1	 0.9;
	 156	 1	 1.39	 0.95	 0	 0	 17	 1	 0	 69	 1	 1.1	 0.9;
	 157	 1	 2.4	 1.69	 0	 0	 17	 1	 0	 69	 1	 1.1	 0.9;
	 158	 1	 1.68	 1.13	 0	 0	 17	 1	 0	 69	 1	 1.1	 0.9;
	 159	 1	 2.11	 1.37	 0	 0	 17	 1	 0	 69	 1	 1.1	 0.9;
	 160	 1	 1.58	 0.87	 0	 0	 17	 1	 0	 69	 1	 1.1	 0.9;
	 161	 1	 3.18	 2.05	 0	 0	 17	 1	 0	 69	 1	 1.1	 0.9;
	 162	 1	 6.48	 3.42	 0	 0	 17	 1	 0	 69	 1	 1.1	 0.9;
	 163	 1	 3.55	 2.32	 0	 0	 17	 1	 0	 69	 1	 1.1	 0.9;
	 164	 1	 2.28	 1.44	 0	 0	 17	 1	 0	 69	 1	 1.1	 0.9;
	 165	 1	 1.95	 1.33	 0	 0	 17	 1	 0	 69	 1	 1.1	 0.9;
	 166	 1	 1.13	 0.76	 0	 0	 17	 1	 0	 69	 1	 1.1	 0.9;
	 167	 1	 1.55	 0.95	 0	 0	 17	 1	 0	 69	 1	 1.1	 0.9;
	 168	 1	 0	 0	 0	 0	 17	 1	 0	 345	 1	 1.1	 0.9;
	 169	 1	 3.51	 2.57	 0	 0	 17	 1	 0	 69	 1	 1.1	 0.9;
	 170	 1	 3.69	 2.44	 0	 0	 17	 1	 0	 69	 1	 1.1	 0.9;
	 171	 1	 0	 0	 0	 0	 17	 1	 0	 138	 1	 1.1	 0.9;
	 172	 1	 6.08	 4.06	 0	 0	 17	 1	 0	 69	 1	 1.1	 0.9;
	 173	 1	 3.77	 2.11	 0	 0	 17	 1	 0	 69	 1	 1.1	 0.9;
	 174	 1	 0	 0	 0	 0	 17	 1	 0	 138	 1	 1.1	 0.9;
	 175	 1	 4.89	 3.09	 0	 0	 17	 1	 0	 69	 1	 1.1	 0.9;
	 176	 1	 16.12	 8.51	 0	 0	 17	 1	 0	 69	 1	 1.1	 0.9;
	 177	 1	 6.54	 2.22	 0	 0	 17	 1	 0	 69	 1	 1.1	 0.9;
	 178	 1	 1.84	 1.24	 0	 0	 17	 1	 0	 69	 1	 1.1	 0.9;
	 179	 1	 2.21	 1.34	 0	 0	 17	 1	 0	 69	 1	 1.1	 0.9;
	 180	 1	 4.13	 2.88	 0	 0	 17	 1	 0	 69	 1	 1.1	 0.9;
	 181	 1	 0.8	 0.58	 0	 0	 17	 1	 0	 69	 1	 1.1	 0.9;
	 182	 1	 0	 0	 0	 0	 17	 1	 0	 138	 1	 1.1	 0.9;
	 183	 1	 1.18	 0.93	 0	 0	 17	 1	 0	 138	 1	 1.1	 0.9;
	 184	 1	 1.31	 0.74	 0	 0	 17	 1	 0	 69	 1	 1.1	 0.9;
	 185	 1	 1.75	 1.18	 0	 0	 17	 1	 0	 69	 1	 1.1	 0.9;
	 186	 1	 0.62	 0.46	 0	 0	 17	 1	 0	 69	 1	 1.1	 0.9;
	 187	 1	 0.67	 0.46	 0	 0	 17	 1	 0	 69	 1	 1.1	 0.9;
	 188	 1	 5.13	 3.21	 0	 0	 17	 1	 0	 69	 1	 1.1	 0.9;
	 189	 1	 1.15	 0.69	 0	 0	 17	 1	 0	 69	 1	 1.1	 0.9;
	 190	 1	 0.77	 0.58	 0	 0	 17	 1	 0	 138	 1	 1.1	 0.9;
	 191	 1	 1.84	 1.3	 0	 0	 17	 1	 0	 69	 1	 1.1	 0.9;
	 192	 1	 5.38	 3.28	 0	 0	 17	 1	 0	 69	 1	 1.1	 0.9;
	 193	 1	 2.82	 1.59	 0	 0	 17	 1	 0	 69	 1	 1.1	 0.9;
	 194	 1	 1.74	 1.17	 0	 0	 17	 1	 0	 69	 1	 1.1	 0.9;
	 195	 1	 4.69	 2.75	 0	 0	 17	 1	 0	 69	 1	 1.1	 0.9;
	 196	 1	 1.38	 1.03	 0	 0	 17	 1	 0	 69	 1	 1.1	 0.9;
	 197	 1	 5.1	 3.08	 0	 0	 17	 1	 0	 69	 1	 1.1	 0.9;
	 198	 1	 2.51	 1.46	 0	 0	 17	 1	 0	 69	 1	 1.1	 0.9;
	 199	 1	 2.55	 1.58	 0	 0	 17	 1	 0	 69	 1	 1.1	 0.9;
	 200	 1	 1.88	 1.42	 0	 0	 17	 1	 0	 69	 1	 1.1	 0.9;
...
];

mpc_regionR1.gen = [
%	bus         Pg          Qg          Qmax        Qmin        Vg          mBase       status      Pmax        Pmin        Pc1         Pc2         Qc1min      Qc1max      Qc2min      Qc2max      ramp_agc    ramp_10     ramp_30     ramp_q      apf         
	 1	 426.25	 52.65	 337.8	-232.5	 1	 100	 1	 697.5	 155	 0	 0	 0	 0	 0	 0	 0	 0	 0	 0	 697.5;
	 1	 426.25	 52.65	 337.8	-232.5	 1	 100	 1	 697.5	 155	 0	 0	 0	 0	 0	 0	 0	 0	 0	 0	 697.5;
	 1	 48.65	 12.25	 52.9	-28.4	 1	 100	 1	 85.3	 12	 0	 0	 0	 0	 0	 0	 0	 0	 0	 0	 85.3;
	 1	 48.65	 12.25	 52.9	-28.4	 1	 100	 1	 85.3	 12	 0	 0	 0	 0	 0	 0	 0	 0	 0	 0	 85.3;
	 1	 48.65	 12.25	 52.9	-28.4	 1	 100	 1	 85.3	 12	 0	 0	 0	 0	 0	 0	 0	 0	 0	 0	 85.3;
	 2	 176.25	 60.95	 219.4	-97.5	 1	 100	 1	 292.5	 60	 0	 0	 0	 0	 0	 0	 0	 0	 0	 0	 292.5;
	 2	 141.3	 58.9	 212	-94.2	 1	 100	 1	 282.6	 0	 0	 0	 0	 0	 0	 0	 0	 0	 0	 0	 282.6;
	 2	 246.55	 74.6	 268.6	-119.4	 1	 100	 1	 358.1	 135	 0	 0	 0	 0	 0	 0	 0	 0	 0	 0	 358.1;
	 3	 131.5	 35.8	 154.9	-83.3	 1	 100	 1	 250	 13	 0	 0	 0	 0	 0	 0	 0	 0	 0	 0	 250;
	 3	 132.5	 24.35	 105.4	-56.7	 1	 100	 1	 170	 95	 0	 0	 0	 0	 0	 0	 0	 0	 0	 0	 170;
	 3	 132.5	 24.35	 105.4	-56.7	 1	 100	 1	 170	 95	 0	 0	 0	 0	 0	 0	 0	 0	 0	 0	 170;
	 3	 132.5	 24.35	 105.4	-56.7	 1	 100	 1	 170	 95	 0	 0	 0	 0	 0	 0	 0	 0	 0	 0	 170;
	 4	 22.9	 3.15	 20.2	-13.9	 1	 100	 1	 41.8	 4	 0	 0	 0	 0	 0	 0	 0	 0	 0	 0	 41.8;
	 4	 22.9	 3.15	 20.2	-13.9	 1	 100	 1	 41.8	 4	 0	 0	 0	 0	 0	 0	 0	 0	 0	 0	 41.8;
	 4	 15.015	 2.9	 14.7	-8.9	 1	 100	 1	 26.7	 3.33	 0	 0	 0	 0	 0	 0	 0	 0	 0	 0	 26.7;
	 4	 15.015	 2.9	 14.7	-8.9	 1	 100	 1	 26.7	 3.33	 0	 0	 0	 0	 0	 0	 0	 0	 0	 0	 26.7;
	 4	 15.015	 2.9	 14.7	-8.9	 1	 100	 1	 26.7	 3.33	 0	 0	 0	 0	 0	 0	 0	 0	 0	 0	 26.7;
	 4	 15.015	 2.9	 14.7	-8.9	 1	 100	 1	 26.7	 3.33	 0	 0	 0	 0	 0	 0	 0	 0	 0	 0	 26.7;
	 4	 15.015	 2.9	 14.7	-8.9	 1	 100	 1	 26.7	 3.33	 0	 0	 0	 0	 0	 0	 0	 0	 0	 0	 26.7;
	 4	 15.015	 2.9	 14.7	-8.9	 1	 100	 1	 26.7	 3.33	 0	 0	 0	 0	 0	 0	 0	 0	 0	 0	 26.7;
	 6	 69.7	 12.8	 55.4	-29.8	 1	 100	 1	 89.4	 50	 0	 0	 0	 0	 0	 0	 0	 0	 0	 0	 89.4;
	 6	 69.7	 12.8	 55.4	-29.8	 1	 100	 1	 89.4	 50	 0	 0	 0	 0	 0	 0	 0	 0	 0	 0	 89.4;
	 6	 69.7	 12.8	 55.4	-29.8	 1	 100	 1	 89.4	 50	 0	 0	 0	 0	 0	 0	 0	 0	 0	 0	 89.4;
	 6	 69.7	 12.8	 55.4	-29.8	 1	 100	 1	 89.4	 50	 0	 0	 0	 0	 0	 0	 0	 0	 0	 0	 89.4;
	 7	 50.625	 10.25	 45.5	-25	 1	 100	 1	 75	 26.25	 0	 0	 0	 0	 0	 0	 0	 0	 0	 0	 75;
	 7	 50.625	 10.25	 45.5	-25	 1	 100	 1	 75	 26.25	 0	 0	 0	 0	 0	 0	 0	 0	 0	 0	 75;
	 9	 11.31	 2.305	 9.93	-5.32	 1	 100	 1	 16	 6.62	 0	 0	 0	 0	 0	 0	 0	 0	 0	 0	 16;
	 9	 11.31	 2.305	 9.93	-5.32	 1	 100	 1	 16	 6.62	 0	 0	 0	 0	 0	 0	 0	 0	 0	 0	 16;
	 9	 11.31	 2.305	 9.93	-5.32	 1	 100	 1	 16	 6.62	 0	 0	 0	 0	 0	 0	 0	 0	 0	 0	 16;
	 9	 11.31	 2.305	 9.93	-5.32	 1	 100	 1	 16	 6.62	 0	 0	 0	 0	 0	 0	 0	 0	 0	 0	 16;
	 9	 14.6	 3	 13.1	-7.1	 1	 100	 1	 21.2	 8	 0	 0	 0	 0	 0	 0	 0	 0	 0	 0	 21.2;
	 9	 14.6	 3	 13.1	-7.1	 1	 100	 1	 21.2	 8	 0	 0	 0	 0	 0	 0	 0	 0	 0	 0	 21.2;
	 9	 15.7	 3.35	 14.5	-7.8	 1	 100	 1	 23.4	 8	 0	 0	 0	 0	 0	 0	 0	 0	 0	 0	 23.4;
	 10	 22.25	 0	 6.2	-6.2	 1	 100	 1	 30.3	 14.2	 0	 0	 0	 0	 0	 0	 0	 0	 0	 0	 30.3;
	 11	 4.685	 1.25	 5.17	-2.67	 1	 100	 1	 7.97	 1.4	 0	 0	 0	 0	 0	 0	 0	 0	 0	 0	 7.9667;
	 11	 4.685	 1.25	 5.17	-2.67	 1	 100	 1	 7.97	 1.4	 0	 0	 0	 0	 0	 0	 0	 0	 0	 0	 7.9667;
	 11	 4.685	 1.25	 5.17	-2.67	 1	 100	 1	 7.97	 1.4	 0	 0	 0	 0	 0	 0	 0	 0	 0	 0	 7.9667;
	 1176	 84.375	 15.75	 76.5	-45	 1	 100	 1	 135	 33.75	 0	 0	 0	 0	 0	 0	 0	 0	 0	 0	 135;
	 1176	 84.375	 15.75	 76.5	-45	 1	 100	 1	 135	 33.75	 0	 0	 0	 0	 0	 0	 0	 0	 0	 0	 135;
	 1183	 38.7	 0	 5.3	-5.3	 1	 100	 1	 68.4	 9	 0	 0	 0	 0	 0	 0	 0	 0	 0	 0	 68.4;
];

mpc_regionR1.branch = [
%	fbus        tbus        r           x           b           rateA       rateB       rateC       ratio       angle       status      angmin      angmax      
	 1	 245	 0.000153	 0.003087	 1.3207	 4345	 4562.3	 4779.5	 0	 0	 1	-30	 30;
	 1	 1171	 0.000373	 0.026131	 0	 750	 750	 750	 1	 0	 1	-30	 30;
	 1	 1171	 0.000373	 0.026131	 0	 750	 750	 750	 1	 0	 1	-30	 30;
	 1172	 1	 0.000634	 0.047551	 0	 450	 450	 450	 1	 0	 1	-30	 30;
	 1172	 1	 0.000634	 0.047551	 0	 450	 450	 450	 1	 0	 1	-30	 30;
	 2	 677	 0.000584	 0.006742	 0.05911	 736	 772.8	 809.6	 0	 0	 1	-30	 30;
	 2	 750	 0.000135	 0.001478	 0.01435	 736	 772.8	 809.6	 0	 0	 1	-30	 30;
	 2	 754	 0.000127	 0.001389	 0.0135	 736	 772.8	 809.6	 0	 0	 1	-30	 30;
	 2	 1126	 0.000249	 0.002879	 0.02524	 736	 772.8	 809.6	 0	 0	 1	-30	 30;
	 2	 1168	 2.1e-05	 0.000231	 0.00227	 736	 772.8	 809.6	 0	 0	 1	-30	 30;
	 3	 753	 0.000103	 0.001185	 0.01039	 736	 772.8	 809.6	 0	 0	 1	-30	 30;
	 3	 1076	 4.5e-05	 0.000506	 0.00461	 736	 772.8	 809.6	 0	 0	 1	-30	 30;
	 3	 1169	 3.8e-05	 0.000432	 0.00393	 736	 772.8	 809.6	 0	 0	 1	-30	 30;
	 3	 1173	 0.000529	 0.036996	 0	 400	 400	 400	 1	 0	 1	-30	 30;
	 3	 1173	 0.000529	 0.036996	 0	 400	 400	 400	 1	 0	 1	-30	 30;
	 4	 290	 0.001029	 0.004632	 0.00123	 175	 183.7	 192.5	 0	 0	 1	-30	 30;
	 4	 393	 0.000394	 0.003383	 0.00096	 261	 274	 287.1	 0	 0	 1	-30	 30;
	 4	 1175	 0.002136	 0.083306	 0	 150	 150	 150	 1	 0	 1	-30	 30;
	 4	 1175	 0.002136	 0.083306	 0	 150	 150	 150	 1	 0	 1	-30	 30;
	 5	 691	 1.8e-05	 0.000204	 0.00179	 736	 772.8	 809.6	 0	 0	 1	-30	 30;
	 5	 1176	 0.001681	 0.073981	 0	 200	 200	 200	 1	 0	 1	-30	 30;
	 5	 1176	 0.001681	 0.073981	 0	 200	 200	 200	 1	 0	 1	-30	 30;
	 6	 589	 0.000114	 0.001611	 0.02602	 1306	 1371.3	 1436.6	 0	 0	 1	-30	 30;
	 1171	 6	 9e-06	 0.000145	 0.00135	 960	 1008	 1056	 0	 0	 1	-30	 30;
	 6	 1178	 0.000438	 0.032886	 0	 450	 450	 450	 1	 0	 1	-30	 30;
	 6	 1178	 0.000438	 0.032886	 0	 450	 450	 450	 1	 0	 1	-30	 30;
	 7	 562	 0.001349	 0.007399	 0.00196	 193	 202.6	 212.3	 0	 0	 1	-30	 30;
	 7	 585	 0.00263	 0.010231	 0.00273	 159	 166.9	 174.9	 0	 0	 1	-30	 30;
	 7	 1182	 0.003471	 0.12495	 0	 100	 100	 100	 1	 0	 1	-30	 30;
	 7	 1182	 0.003471	 0.12495	 0	 100	 100	 100	 1	 0	 1	-30	 30;
	 8	 719	 0.000489	 0.001676	 0.0004	 142	 149.1	 156.2	 0	 0	 1	-30	 30;
	 8	 1183	 0.003471	 0.12495	 0	 100	 100	 100	 1	 0	 1	-30	 30;
	 8	 1183	 0.003471	 0.12495	 0	 100	 100	 100	 1	 0	 1	-30	 30;
	 9	 235	 0.000862	 0.002237	 0.00054	 118	 123.9	 129.8	 0	 0	 1	-30	 30;
	 9	 654	 0.000598	 0.002052	 0.00049	 142	 149.1	 156.2	 0	 0	 1	-30	 30;
	 9	 1184	 0.003471	 0.12495	 0	 100	 100	 100	 1	 0	 1	-30	 30;
	 9	 1184	 0.003471	 0.12495	 0	 100	 100	 100	 1	 0	 1	-30	 30;
	 10	 611	 0.058358	 0.046184	 0.00058	 24	 25.2	 26.4	 0	 0	 1	-30	 30;
	 10	 612	 0.18432	 0.18619	 0.00247	 28	 29.4	 30.8	 0	 0	 1	-30	 30;
	 10	 1422	 0.008457	 0.02961	 0.00082	 88	 92.4	 96.8	 0	 0	 1	-30	 30;
	 11	 591	 0.006938	 0.0129	 0.0003	 57	 59.9	 62.7	 0	 0	 1	-30	 30;
	 12	 13	 0.000798	 0.003942	 0.00115	 191	 200.6	 210.1	 0	 0	 1	-30	 30;
	 13	 37	 0.004407	 0.01964	 0.00534	 175	 183.7	 192.5	 0	 0	 1	-30	 30;
	 13	 1185	 0.003471	 0.12495	 0	 100	 100	 100	 1	 0	 1	-30	 30;
	 13	 1185	 0.003471	 0.12495	 0	 100	 100	 100	 1	 0	 1	-30	 30;
	 14	 38	 0.069124	 0.13687	 0.00201	 41	 43.1	 45.1	 0	 0	 1	-30	 30;
	 15	 17	 0.005765	 0.025688	 0.00044	 88	 92.4	 96.8	 0	 0	 1	-30	 30;
	 15	 281	 0.016586	 0.047572	 0.00073	 64	 67.2	 70.4	 0	 0	 1	-30	 30;
	 16	 19	 0.018678	 0.030057	 0.00047	 37	 38.9	 40.7	 0	 0	 1	-30	 30;
	 16	 23	 0.037991	 0.029141	 0.00039	 24	 25.2	 26.4	 0	 0	 1	-30	 30;
	 16	 1186	 0.032599	 0.025798	 0.00032	 24	 25.2	 26.4	 0	 0	 1	-30	 30;
	 1186	 17	 0.00479	 0.023375	 0.0004	 92	 96.6	 101.2	 0	 0	 1	-30	 30;
	 18	 21	 0.039351	 0.031142	 0.00039	 24	 25.2	 26.4	 0	 0	 1	-30	 30;
	 19	 21	 0.003045	 0.018722	 0.00034	 110	 115.5	 121	 0	 0	 1	-30	 30;
	 19	 1187	 0.005107	 0.019648	 0.00034	 80	 84	 88	 0	 0	 1	-30	 30;
	 20	 27	 0.003143	 0.019502	 0.00472	 205	 215.2	 225.5	 0	 0	 1	-30	 30;
	 20	 1187	 0.003471	 0.12495	 0	 100	 100	 100	 1	 0	 1	-30	 30;
	 20	 1187	 0.003471	 0.12495	 0	 100	 100	 100	 1	 0	 1	-30	 30;
	 21	 22	 0.004873	 0.011312	 0.00022	 59	 61.9	 64.9	 0	 0	 1	-30	 30;
	 21	 1188	 0.036055	 0.055233	 0.00078	 35	 36.8	 38.5	 0	 0	 1	-30	 30;
	 22	 24	 0.041113	 0.032536	 0.00041	 24	 25.2	 26.4	 0	 0	 1	-30	 30;
	 22	 28	 0.019593	 0.013161	 0.00023	 24	 25.2	 26.4	 0	 0	 1	-30	 30;
	 25	 26	 0.059357	 0.046975	 0.00059	 24	 25.2	 26.4	 0	 0	 1	-30	 30;
	 26	 1189	 0.036685	 0.033098	 0.00055	 28	 29.4	 30.8	 0	 0	 1	-30	 30;
	 27	 1188	 0.002136	 0.083306	 0	 150	 150	 150	 1	 0	 1	-30	 30;
	 27	 1188	 0.002136	 0.083306	 0	 150	 150	 150	 1	 0	 1	-30	 30;
	 27	 1266	 0.009749	 0.03832	 0.01003	 159	 166.9	 174.9	 0	 0	 1	-30	 30;
	 29	 30	 0.003962	 0.010471	 0.00245	 118	 123.9	 129.8	 0	 0	 1	-30	 30;
	 29	 1189	 0.003471	 0.12495	 0	 100	 100	 100	 1	 0	 1	-30	 30;
	 29	 1189	 0.003471	 0.12495	 0	 100	 100	 100	 1	 0	 1	-30	 30;
	 30	 1190	 0.003471	 0.12495	 0	 100	 100	 100	 1	 0	 1	-30	 30;
	 30	 1190	 0.003471	 0.12495	 0	 100	 100	 100	 1	 0	 1	-30	 30;
	 1190	 31	 0.008275	 0.028971	 0.0008	 88	 92.4	 96.8	 0	 0	 1	-30	 30;
	 31	 1275	 0.004834	 0.018597	 0.00032	 80	 84	 88	 0	 0	 1	-30	 30;
	 32	 612	 0.017274	 0.044406	 0.00069	 59	 61.9	 64.9	 0	 0	 1	-30	 30;
	 1190	 32	 0.007909	 0.022683	 0.00035	 64	 67.2	 70.4	 0	 0	 1	-30	 30;
	 33	 37	 0.002489	 0.012379	 0.004	 193	 202.6	 212.3	 0	 0	 1	-30	 30;
	 33	 39	 0.002965	 0.009267	 0.00268	 142	 149.1	 156.2	 0	 0	 1	-30	 30;
	 34	 609	 0.029574	 0.078387	 0.00199	 71	 74.6	 78.1	 0	 0	 1	-30	 30;
	 34	 1192	 0.03432	 0.067952	 0.001	 41	 43.1	 45.1	 0	 0	 1	-30	 30;
	 35	 44	 0.000223	 0.002451	 0.02381	 736	 772.8	 809.6	 0	 0	 1	-30	 30;
	 35	 1191	 0.000329	 0.024664	 0	 600	 600	 600	 1	 0	 1	-30	 30;
	 36	 37	 0.006545	 0.01699	 0.00412	 118	 123.9	 129.8	 0	 0	 1	-30	 30;
	 36	 39	 0.009288	 0.031294	 0.00778	 142	 149.1	 156.2	 0	 0	 1	-30	 30;
	 1180	 36	 0.00948	 0.076972	 0.02452	 261	 274	 287.1	 0	 0	 1	-30	 30;
	 36	 1193	 0.003471	 0.12495	 0	 100	 100	 100	 1	 0	 1	-30	 30;
	 36	 1193	 0.003471	 0.12495	 0	 100	 100	 100	 1	 0	 1	-30	 30;
	 36	 1196	 0.009918	 0.034024	 0.00815	 142	 149.1	 156.2	 0	 0	 1	-30	 30;
	 37	 1194	 0.00806	 0.24987	 0	 50	 50	 50	 1	 0	 1	-30	 30;
	 37	 1194	 0.00806	 0.24987	 0	 50	 50	 50	 1	 0	 1	-30	 30;
	 1185	 38	 0.046837	 0.092734	 0.00136	 41	 43.1	 45.1	 0	 0	 1	-30	 30;
	 1194	 38	 0.071329	 0.046179	 0.00088	 24	 25.2	 26.4	 0	 0	 1	-30	 30;
	 38	 1318	 0.043476	 0.098621	 0.00197	 59	 61.9	 64.9	 0	 0	 1	-30	 30;
	 39	 40	 0.003787	 0.011397	 0.00357	 142	 149.1	 156.2	 0	 0	 1	-30	 30;
	 39	 42	 0.004359	 0.014686	 0.00365	 142	 149.1	 156.2	 0	 0	 1	-30	 30;
	 40	 70	 0.003783	 0.012976	 0.00311	 142	 149.1	 156.2	 0	 0	 1	-30	 30;
	 40	 1195	 0.003471	 0.12495	 0	 100	 100	 100	 1	 0	 1	-30	 30;
	 40	 1195	 0.003471	 0.12495	 0	 100	 100	 100	 1	 0	 1	-30	 30;
	 1195	 41	 0.033405	 0.03374	 0.00045	 28	 29.4	 30.8	 0	 0	 1	-30	 30;
	 42	 77	 0.003582	 0.010877	 0.00238	 128	 134.4	 140.8	 0	 0	 1	-30	 30;
	 43	 57	 0.041829	 0.08282	 0.00122	 41	 43.1	 45.1	 0	 0	 1	-30	 30;
	 1193	 43	 0.03019	 0.10071	 0.0016	 71	 74.6	 78.1	 0	 0	 1	-30	 30;
	 44	 46	 0.000386	 0.004275	 0.0407	 736	 772.8	 809.6	 0	 0	 1	-30	 30;
	 44	 1196	 0.000359	 0.026907	 0	 550	 550	 550	 1	 0	 1	-30	 30;
	 45	 51	 0.046418	 0.034151	 0.0005	 24	 25.2	 26.4	 0	 0	 1	-30	 30;
	 45	 588	 0.23176	 0.25497	 0.0034	 30	 31.5	 33	 0	 0	 1	-30	 30;
	 1197	 45	 0.052946	 0.052959	 0.00072	 28	 29.4	 30.8	 0	 0	 1	-30	 30;
	 45	 1198	 0.081356	 0.063772	 0.00082	 24	 25.2	 26.4	 0	 0	 1	-30	 30;
	 46	 47	 4.6e-05	 0.000722	 0.00753	 960	 1008	 1056	 0	 0	 1	-30	 30;
	 46	 598	 0.000161	 0.001893	 0.03306	 1190	 1249.5	 1309	 0	 0	 1	-30	 30;
	 46	 1198	 0.001943	 0.085478	 0	 200	 200	 200	 1	 0	 1	-30	 30;
	 46	 1198	 0.001943	 0.085478	 0	 200	 200	 200	 1	 0	 1	-30	 30;
	 47	 53	 7e-05	 0.001117	 0.01129	 960	 1008	 1056	 0	 0	 1	-30	 30;
	 47	 1199	 0.004748	 0.17093	 0	 100	 100	 100	 1	 0	 1	-30	 30;
	 47	 1199	 0.004748	 0.17093	 0	 100	 100	 100	 1	 0	 1	-30	 30;
	 48	 56	 0.000101	 0.001163	 0.0102	 736	 772.8	 809.6	 0	 0	 1	-30	 30;
	 48	 242	 5.2e-05	 0.000868	 0.00814	 960	 1008	 1056	 0	 0	 1	-30	 30;
	 48	 1200	 0.000783	 0.042278	 0	 350	 350	 350	 1	 0	 1	-30	 30;
	 48	 1200	 0.000783	 0.042278	 0	 350	 350	 350	 1	 0	 1	-30	 30;
	 49	 55	 0.004396	 0.01162	 0.00021	 64	 67.2	 70.4	 0	 0	 1	-30	 30;
	 49	 1202	 0.00704	 0.023232	 0.00038	 71	 74.6	 78.1	 0	 0	 1	-30	 30;
	 50	 1201	 0.036682	 0.026517	 0.0004	 24	 25.2	 26.4	 0	 0	 1	-30	 30;
	 1198	 51	 0.012912	 0.029529	 0.00072	 64	 67.2	 70.4	 0	 0	 1	-30	 30;
	 51	 1202	 0.008405	 0.022276	 0.00056	 71	 74.6	 78.1	 0	 0	 1	-30	 30;
	 1196	 52	 0.006448	 0.02451	 0.00686	 159	 166.9	 174.9	 0	 0	 1	-30	 30;
	 1200	 52	 0.002643	 0.007415	 0.00191	 128	 134.4	 140.8	 0	 0	 1	-30	 30;
	 52	 1201	 0.00806	 0.24987	 0	 50	 50	 50	 1	 0	 1	-30	 30;
	 52	 1201	 0.00806	 0.24987	 0	 50	 50	 50	 1	 0	 1	-30	 30;
	 53	 242	 0.000139	 0.002305	 0.02161	 960	 1008	 1056	 0	 0	 1	-30	 30;
	 53	 1202	 0.004748	 0.17093	 0	 100	 100	 100	 1	 0	 1	-30	 30;
	 53	 1202	 0.004748	 0.17093	 0	 100	 100	 100	 1	 0	 1	-30	 30;
	 54	 139	 0.027455	 0.10563	 0.0018	 80	 84	 88	 0	 0	 1	-30	 30;
	 1198	 54	 0.024203	 0.044329	 0.00077	 41	 43.1	 45.1	 0	 0	 1	-30	 30;
	 1199	 54	 0.011855	 0.022043	 0.00052	 57	 59.9	 62.7	 0	 0	 1	-30	 30;
	 55	 1250	 0.022702	 0.058357	 0.0009	 59	 61.9	 64.9	 0	 0	 1	-30	 30;
	 56	 61	 0.000122	 0.001359	 0.01281	 736	 772.8	 809.6	 0	 0	 1	-30	 30;
	 57	 58	 0.07226	 0.056641	 0.00073	 24	 25.2	 26.4	 0	 0	 1	-30	 30;
	 57	 59	 0.068828	 0.05447	 0.00069	 24	 25.2	 26.4	 0	 0	 1	-30	 30;
	 58	 59	 0.036082	 0.028283	 0.00036	 24	 25.2	 26.4	 0	 0	 1	-30	 30;
	 58	 63	 0.086778	 0.065748	 0.00091	 24	 25.2	 26.4	 0	 0	 1	-30	 30;
	 59	 60	 0.01176	 0.017836	 0.00026	 35	 36.8	 38.5	 0	 0	 1	-30	 30;
	 59	 1205	 0.07325	 0.05797	 0.00073	 24	 25.2	 26.4	 0	 0	 1	-30	 30;
	 60	 64	 0.02721	 0.021534	 0.00027	 24	 25.2	 26.4	 0	 0	 1	-30	 30;
	 1201	 60	 0.031282	 0.081075	 0.00153	 64	 67.2	 70.4	 0	 0	 1	-30	 30;
	 61	 62	 6e-05	 0.000688	 0.00621	 736	 772.8	 809.6	 0	 0	 1	-30	 30;
	 62	 94	 0.000344	 0.003778	 0.03669	 736	 772.8	 809.6	 0	 0	 1	-30	 30;
	 62	 131	 8.7e-05	 0.000984	 0.00896	 736	 772.8	 809.6	 0	 0	 1	-30	 30;
	 63	 65	 0.023378	 0.0172	 0.00025	 24	 25.2	 26.4	 0	 0	 1	-30	 30;
	 63	 66	 0.032186	 0.020837	 0.0004	 24	 25.2	 26.4	 0	 0	 1	-30	 30;
	 64	 66	 0.01777	 0.014626	 0.0003	 28	 29.4	 30.8	 0	 0	 1	-30	 30;
	 65	 66	 0.022252	 0.016372	 0.00024	 24	 25.2	 26.4	 0	 0	 1	-30	 30;
	 65	 1225	 0.007583	 0.019284	 0.0003	 59	 61.9	 64.9	 0	 0	 1	-30	 30;
	 66	 1225	 0.013054	 0.025845	 0.00038	 41	 43.1	 45.1	 0	 0	 1	-30	 30;
	 67	 68	 0.012721	 0.016555	 0.00023	 33	 34.7	 36.3	 0	 0	 1	-30	 30;
	 67	 69	 0.045489	 0.033467	 0.00049	 24	 25.2	 26.4	 0	 0	 1	-30	 30;
	 67	 1204	 0.014099	 0.025341	 0.00046	 41	 43.1	 45.1	 0	 0	 1	-30	 30;
	 68	 69	 0.010762	 0.016484	 0.00029	 37	 38.9	 40.7	 0	 0	 1	-30	 30;
	 68	 75	 0.041431	 0.045569	 0.00061	 30	 31.5	 33	 0	 0	 1	-30	 30;
	 69	 1203	 0.005906	 0.01676	 0.00026	 64	 67.2	 70.4	 0	 0	 1	-30	 30;
	 70	 536	 0.010098	 0.026688	 0.00625	 118	 123.9	 129.8	 0	 0	 1	-30	 30;
	 70	 1203	 0.003471	 0.12495	 0	 100	 100	 100	 1	 0	 1	-30	 30;
	 70	 1203	 0.003471	 0.12495	 0	 100	 100	 100	 1	 0	 1	-30	 30;
	 1203	 71	 0.036235	 0.028676	 0.00036	 24	 25.2	 26.4	 0	 0	 1	-30	 30;
	 72	 74	 0.011538	 0.019437	 0.00028	 37	 38.9	 40.7	 0	 0	 1	-30	 30;
	 72	 75	 0.040305	 0.029136	 0.00044	 24	 25.2	 26.4	 0	 0	 1	-30	 30;
	 72	 531	 0.022771	 0.018021	 0.00023	 24	 25.2	 26.4	 0	 0	 1	-30	 30;
	 73	 74	 0.007487	 0.014824	 0.00022	 41	 43.1	 45.1	 0	 0	 1	-30	 30;
	 73	 89	 0.005595	 0.018665	 0.0003	 71	 74.6	 78.1	 0	 0	 1	-30	 30;
	 75	 76	 0.025208	 0.027726	 0.00037	 30	 31.5	 33	 0	 0	 1	-30	 30;
	 75	 1206	 0.023258	 0.056931	 0.00097	 59	 61.9	 64.9	 0	 0	 1	-30	 30;
	 77	 78	 0.00253	 0.006791	 0.00154	 118	 123.9	 129.8	 0	 0	 1	-30	 30;
	 77	 88	 0.01108	 0.028766	 0.00698	 118	 123.9	 129.8	 0	 0	 1	-30	 30;
	 77	 1204	 0.00806	 0.24987	 0	 50	 50	 50	 1	 0	 1	-30	 30;
	 77	 1204	 0.00806	 0.24987	 0	 50	 50	 50	 1	 0	 1	-30	 30;
	 78	 79	 0.001621	 0.003906	 0.0011	 118	 123.9	 129.8	 0	 0	 1	-30	 30;
	 79	 88	 0.007431	 0.020232	 0.00446	 118	 123.9	 129.8	 0	 0	 1	-30	 30;
	 79	 1205	 0.00806	 0.24987	 0	 50	 50	 50	 1	 0	 1	-30	 30;
	 79	 1205	 0.00806	 0.24987	 0	 50	 50	 50	 1	 0	 1	-30	 30;
	 80	 82	 0.036292	 0.028721	 0.00036	 24	 25.2	 26.4	 0	 0	 1	-30	 30;
	 1205	 80	 0.023537	 0.018627	 0.00023	 24	 25.2	 26.4	 0	 0	 1	-30	 30;
	 81	 84	 0.026778	 0.021192	 0.00027	 24	 25.2	 26.4	 0	 0	 1	-30	 30;
	 1205	 81	 0.044797	 0.035452	 0.00045	 24	 25.2	 26.4	 0	 0	 1	-30	 30;
	 82	 86	 0.02296	 0.01817	 0.00023	 24	 25.2	 26.4	 0	 0	 1	-30	 30;
	 82	 1206	 0.02351	 0.039604	 0.00056	 37	 38.9	 40.7	 0	 0	 1	-30	 30;
	 83	 1206	 0.035798	 0.02833	 0.00036	 24	 25.2	 26.4	 0	 0	 1	-30	 30;
	 84	 86	 0.023835	 0.018863	 0.00024	 24	 25.2	 26.4	 0	 0	 1	-30	 30;
	 84	 1225	 0.004987	 0.016637	 0.00026	 71	 74.6	 78.1	 0	 0	 1	-30	 30;
	 85	 93	 0.025951	 0.020537	 0.00026	 24	 25.2	 26.4	 0	 0	 1	-30	 30;
	 85	 108	 0.018598	 0.014718	 0.00019	 24	 25.2	 26.4	 0	 0	 1	-30	 30;
	 87	 1206	 0.029186	 0.022877	 0.00029	 24	 25.2	 26.4	 0	 0	 1	-30	 30;
	 88	 1206	 0.003471	 0.12495	 0	 100	 100	 100	 1	 0	 1	-30	 30;
	 88	 1206	 0.003471	 0.12495	 0	 100	 100	 100	 1	 0	 1	-30	 30;
	 88	 1248	 0.001124	 0.01079	 0.00314	 284	 298.2	 312.4	 0	 0	 1	-30	 30;
	 89	 1207	 0.005729	 0.032564	 0.00059	 103	 108.2	 113.3	 0	 0	 1	-30	 30;
	 90	 541	 0.01259	 0.040541	 0.00069	 71	 74.6	 78.1	 0	 0	 1	-30	 30;
	 90	 1207	 0.002986	 0.016972	 0.00031	 103	 108.2	 113.3	 0	 0	 1	-30	 30;
	 91	 559	 0.003462	 0.015252	 0.00026	 88	 92.4	 96.8	 0	 0	 1	-30	 30;
	 91	 1212	 0.003543	 0.021783	 0.00039	 110	 115.5	 121	 0	 0	 1	-30	 30;
	 92	 1207	 0.003471	 0.12495	 0	 100	 100	 100	 1	 0	 1	-30	 30;
	 92	 1207	 0.003471	 0.12495	 0	 100	 100	 100	 1	 0	 1	-30	 30;
...
];

mpc_regionR1.gencost = [
%	2           startup     shutdown    n           c(n-1)...c0 
	 2	 0	 0	 3	 0.002	 12.935	 1094.5;
	 2	 0	 0	 3	 0.002	 12.935	 1094.5;
	 2	 0	 0	 3	 0.007	 16.922	 371.49;
	 2	 0	 0	 3	 0.007	 16.922	 371.49;
	 2	 0	 0	 3	 0.007	 16.922	 371.49;
	 2	 0	 0	 3	 0.005	 13.503	 473.56;
	 2	 0	 0	 3	 0.008	 21.527	 741.26;
	 2	 0	 0	 3	 0.004	 13.27	 554.22;
	 2	 0	 0	 3	 0.009	 21.727	 669.8;
	 2	 0	 0	 3	 0.005	 60.757	 2894.55;
	 2	 0	 0	 3	 0.005	 60.757	 2894.55;
	 2	 0	 0	 3	 0.005	 60.757	 2894.55;
	 2	 0	 0	 3	 0.026	 13.537	 318.86;
	 2	 0	 0	 3	 0.026	 13.537	 318.86;
	 2	 0	 0	 3	 0.005	 60.757	 2894.55;
	 2	 0	 0	 3	 0.005	 60.757	 2894.55;
	 2	 0	 0	 3	 0.005	 60.757	 2894.55;
	 2	 0	 0	 3	 0.005	 60.757	 2894.55;
	 2	 0	 0	 3	 0.005	 60.757	 2894.55;
	 2	 0	 0	 3	 0.005	 60.757	 2894.55;
	 2	 0	 0	 3	 0.007	 16.922	 371.49;
	 2	 0	 0	 3	 0.007	 16.922	 371.49;
	 2	 0	 0	 3	 0.007	 16.922	 371.49;
	 2	 0	 0	 3	 0.007	 16.922	 371.49;
	 2	 0	 0	 3	 0.02	 15.433	 149.28;
	 2	 0	 0	 3	 0.02	 15.433	 149.28;
	 2	 0	 0	 3	 0.026	 13.537	 318.86;
	 2	 0	 0	 3	 0.026	 13.537	 318.86;
	 2	 0	 0	 3	 0.026	 13.537	 318.86;
	 2	 0	 0	 3	 0.026	 13.537	 318.86;
	 2	 0	 0	 3	 0.008	 50.578	 1755.23;
	 2	 0	 0	 3	 0.008	 50.578	 1755.23;
	 2	 0	 0	 3	 0.008	 50.578	 1755.23;
	 2	 0	 0	 3	 0.053	 14.879	 51.34;
	 2	 0	 0	 3	 0.114	 26.977	 78.78;
	 2	 0	 0	 3	 0.114	 26.977	 78.78;
	 2	 0	 0	 3	 0.114	 26.977	 78.78;
	 2	 0	 0	 3	 0.017	 23.176	 397.06;
	 2	 0	 0	 3	 0.017	 23.176	 397.06;
	 2	 0	 0	 3	 0	 0	 0;
];


% -------------------- mpc_regionR2 --------------------

mpc_regionR2.version = '2';
mpc_regionR2.baseMVA = 100.0000;
mpc_regionR2.bus = [
%	bus_i       type        Pd          Qd          Gs          Bs          area        Vm          Va          baseKV      zone        Vmax        Vmin        
	 1	 2	 0	 0	 0	 0	 17	 1	 0	 765	 1	 1.1	 0.9;
	 2	 2	 0	 0	 0	 0	 17	 1	 0	 138	 1	 1.1	 0.9;
	 3	 2	 0	 0	 0	 0	 17	 1	 0	 345	 1	 1.1	 0.9;
	 4	 2	 0	 0	 0	 0	 17	 1	 0	 345	 1	 1.1	 0.9;
	 5	 2	 0	 0	 0	 0	 17	 1	 0	 138	 1	 1.1	 0.9;
	 6	 1	 0	 0	 0	 0	 17	 1	 0	 765	 1	 1.1	 0.9;
	 7	 2	 0	 0	 0	 0	 17	 1	 0	 345	 1	 1.1	 0.9;
	 8	 2	 0	 0	 0	 0	 17	 1	 0	 138	 1	 1.1	 0.9;
	 9	 2	 0	 0	 0	 0	 17	 1	 0	 138	 1	 1.1	 0.9;
	 10	 2	 0	 0	 0	 0	 17	 1	 0	 69	 1	 1.1	 0.9;
	 11	 1	 0	 0	 0	 0	 17	 1	 0	 138	 1	 1.1	 0.9;
	 12	 2	 0	 0	 0	 0	 17	 1	 0	 69	 1	 1.1	 0.9;
	 13	 2	 0	 0	 0	 0	 17	 1	 0	 69	 1	 1.1	 0.9;
	 14	 1	 0	 0	 0	 0	 17	 1	 0	 138	 1	 1.1	 0.9;
	 15	 2	 0	 0	 0	 0	 17	 1	 0	 138	 1	 1.1	 0.9;
	 16	 1	 0	 0	 0	 0	 17	 1	 0	 138	 1	 1.1	 0.9;
	 17	 2	 0	 0	 0	 0	 17	 1	 0	 69	 1	 1.1	 0.9;
	 18	 2	 0	 0	 0	 0	 17	 1	 0	 69	 1	 1.1	 0.9;
	 19	 1	 0	 0	 0	 0	 17	 1	 0	 345	 1	 1.1	 0.9;
	 20	 2	 0	 0	 0	 0	 17	 1	 0	 69	 1	 1.1	 0.9;
	 21	 2	 0	 0	 0	 0	 17	 1	 0	 69	 1	 1.1	 0.9;
	 22	 2	 0	 0	 0	 0	 17	 1	 0	 69	 1	 1.1	 0.9;
	 23	 2	 0	 0	 0	 0	 17	 1	 0	 69	 1	 1.1	 0.9;
	 24	 2	 0	 0	 0	 0	 17	 1	 0	 69	 1	 1.1	 0.9;
	 25	 1	 0	 0	 0	 0	 17	 1	 0	 138	 1	 1.1	 0.9;
	 26	 2	 0	 0	 0	 0	 17	 1	 0	 69	 1	 1.1	 0.9;
	 27	 2	 0	 0	 0	 0	 17	 1	 0	 69	 1	 1.1	 0.9;
	 28	 1	 0	 0	 0	 0	 17	 1	 0	 138	 1	 1.1	 0.9;
	 29	 2	 0	 0	 0	 0	 17	 1	 0	 138	 1	 1.1	 0.9;
	 30	 2	 0	 0	 0	 0	 17	 1	 0	 69	 1	 1.1	 0.9;
	 31	 2	 0	 0	 0	 0	 17	 1	 0	 69	 1	 1.1	 0.9;
	 32	 2	 0	 0	 0	 0	 17	 1	 0	 69	 1	 1.1	 0.9;
	 33	 1	 1.27	 0.73	 0	 0	 17	 1	 0	 69	 1	 1.1	 0.9;
	 34	 1	 2.25	 1.43	 0	 0	 17	 1	 0	 69	 1	 1.1	 0.9;
	 35	 1	 2.27	 1.44	 0	 0	 17	 1	 0	 69	 1	 1.1	 0.9;
	 36	 1	 3.65	 2.12	 0	 0	 17	 1	 0	 69	 1	 1.1	 0.9;
	 37	 1	 0.86	 0.56	 0	 0	 17	 1	 0	 69	 1	 1.1	 0.9;
	 38	 1	 0	 0	 0	-289.26	 17	 1	 0	 765	 1	 1.1	 0.9;
	 39	 1	 1.99	 1.43	 0	 0	 17	 1	 0	 69	 1	 1.1	 0.9;
	 40	 1	 4.61	 2.56	 0	 0	 17	 1	 0	 69	 1	 1.1	 0.9;
	 41	 1	 3.56	 2.33	 0	 0	 17	 1	 0	 69	 1	 1.1	 0.9;
	 42	 1	 0	 0	 0	 0	 17	 1	 0	 138	 1	 1.1	 0.9;
	 43	 1	 8.28	 5.11	 0	 0	 17	 1	 0	 69	 1	 1.1	 0.9;
	 44	 1	 20.57	 9.86	 0	 0	 17	 1	 0	 69	 1	 1.1	 0.9;
	 45	 1	 3.84	 2.44	 0	 0	 17	 1	 0	 69	 1	 1.1	 0.9;
	 46	 1	 1.45	 1.04	 0	 0	 17	 1	 0	 69	 1	 1.1	 0.9;
	 47	 1	 4.32	 3.04	 0	 0	 17	 1	 0	 69	 1	 1.1	 0.9;
	 48	 1	 2.37	 1.54	 0	 0	 17	 1	 0	 69	 1	 1.1	 0.9;
	 49	 1	 4.23	 2.73	 0	 0	 17	 1	 0	 69	 1	 1.1	 0.9;
	 50	 1	 2.45	 0.55	 0	 0	 17	 1	 0	 69	 1	 1.1	 0.9;
	 51	 1	 2.61	 1.39	 0	 0	 17	 1	 0	 69	 1	 1.1	 0.9;
	 52	 1	 2	 1.15	 0	 0	 17	 1	 0	 69	 1	 1.1	 0.9;
	 53	 1	 6.87	 3.06	 0	 0	 17	 1	 0	 69	 1	 1.1	 0.9;
	 54	 1	 2.07	 1.19	 0	 0	 17	 1	 0	 69	 1	 1.1	 0.9;
	 55	 1	 2.76	 1.43	 0	 0	 17	 1	 0	 69	 1	 1.1	 0.9;
	 56	 1	 5.91	 3.23	 0	 0	 17	 1	 0	 69	 1	 1.1	 0.9;
	 57	 1	 1.65	 1	 0	 0	 17	 1	 0	 69	 1	 1.1	 0.9;
	 58	 1	 2.25	 1.37	 0	 0	 17	 1	 0	 69	 1	 1.1	 0.9;
	 59	 1	 2.78	 1.89	 0	 0	 17	 1	 0	 69	 1	 1.1	 0.9;
	 60	 1	 2.12	 1.2	 0	 0	 17	 1	 0	 69	 1	 1.1	 0.9;
	 61	 1	 0	 0	 0	 0	 17	 1	 0	 138	 1	 1.1	 0.9;
	 62	 1	 0	 0	 0	 0	 17	 1	 0	 138	 1	 1.1	 0.9;
	 63	 1	 7.66	 3.76	 0	 0	 17	 1	 0	 69	 1	 1.1	 0.9;
	 64	 1	 1.52	 0.74	 0	 0	 17	 1	 0	 69	 1	 1.1	 0.9;
	 65	 1	 0	 0	 0	 0	 17	 1	 0	 138	 1	 1.1	 0.9;
	 66	 1	 0	 0	 0	 0	 17	 1	 0	 138	 1	 1.1	 0.9;
	 67	 1	 2.02	 1.59	 0	 0	 17	 1	 0	 138	 1	 1.1	 0.9;
	 68	 1	 4.31	 2.42	 0	 0	 17	 1	 0	 69	 1	 1.1	 0.9;
	 69	 1	 2.06	 1.64	 0	 0	 17	 1	 0	 69	 1	 1.1	 0.9;
	 70	 1	 5.1	 2.24	 0	 0	 17	 1	 0	 69	 1	 1.1	 0.9;
	 71	 1	 4.61	 2.6	 0	 0	 17	 1	 0	 69	 1	 1.1	 0.9;
	 72	 1	 0	 0	 0	 0	 17	 1	 0	 138	 1	 1.1	 0.9;
	 73	 1	 5.73	 3.19	 0	 0	 17	 1	 0	 138	 1	 1.1	 0.9;
	 74	 1	 4.96	 3.53	 0	 0	 17	 1	 0	 138	 1	 1.1	 0.9;
	 75	 1	 0	 0	 0	 0	 17	 1	 0	 345	 1	 1.1	 0.9;
	 76	 1	 6.29	 4.06	 0	 0	 17	 1	 0	 138	 1	 1.1	 0.9;
	 77	 1	 5.16	 2.89	 0	 0	 17	 1	 0	 69	 1	 1.1	 0.9;
	 78	 1	 0	 0	 0	 0	 17	 1	 0	 138	 1	 1.1	 0.9;
	 79	 1	 16.26	 9.12	 0	 0	 17	 1	 0	 138	 1	 1.1	 0.9;
	 80	 1	 7.38	 4.31	 0	 0	 17	 1	 0	 69	 1	 1.1	 0.9;
	 81	 1	 0	 0	 0	 0	 17	 1	 0	 138	 1	 1.1	 0.9;
	 82	 1	 0	 0	 0	 0	 17	 1	 0	 345	 1	 1.1	 0.9;
	 83	 1	 1.67	 1.39	 0	 0	 17	 1	 0	 69	 1	 1.1	 0.9;
	 84	 1	 0	 0	 0	 0	 17	 1	 0	 138	 1	 1.1	 0.9;
	 85	 1	 3.82	 2.3	 0	 0	 17	 1	 0	 69	 1	 1.1	 0.9;
	 86	 1	 0	 0	 0	 0	 17	 1	 0	 138	 1	 1.1	 0.9;
	 87	 1	 1.62	 1.2	 0	 0	 17	 1	 0	 69	 1	 1.1	 0.9;
	 88	 1	 0	 0	 0	 0	 17	 1	 0	 138	 1	 1.1	 0.9;
	 89	 1	 3.79	 2.91	 0	 0	 17	 1	 0	 69	 1	 1.1	 0.9;
	 90	 1	 4.69	 3.17	 0	 0	 17	 1	 0	 138	 1	 1.1	 0.9;
	 91	 1	 0	 0	 0	 0	 17	 1	 0	 138	 1	 1.1	 0.9;
	 92	 1	 1.29	 0.85	 0	 0	 17	 1	 0	 69	 1	 1.1	 0.9;
	 93	 1	 3.56	 2.15	 0	 0	 17	 1	 0	 69	 1	 1.1	 0.9;
	 94	 1	 0	 0	 0	 0	 17	 1	 0	 138	 1	 1.1	 0.9;
	 95	 1	 0	 0	 0	 0	 17	 1	 0	 138	 1	 1.1	 0.9;
	 96	 1	 0.96	 0.67	 0	 0	 17	 1	 0	 138	 1	 1.1	 0.9;
	 97	 1	 5.89	 1.93	 0	 0	 17	 1	 0	 69	 1	 1.1	 0.9;
	 98	 1	 0	 0	 0	 0	 17	 1	 0	 138	 1	 1.1	 0.9;
	 99	 1	 1.2	 0.85	 0	 0	 17	 1	 0	 138	 1	 1.1	 0.9;
	 100	 1	 3.01	 1.85	 0	 0	 17	 1	 0	 69	 1	 1.1	 0.9;
	 101	 1	 5.64	 2.5	 0	 0	 17	 1	 0	 69	 1	 1.1	 0.9;
	 102	 1	 2.01	 0.45	 0	 0	 17	 1	 0	 69	 1	 1.1	 0.9;
	 103	 1	 7.65	 1.73	 0	 0	 17	 1	 0	 69	 1	 1.1	 0.9;
	 104	 1	 4.32	 2.11	 0	 0	 17	 1	 0	 69	 1	 1.1	 0.9;
	 105	 1	 5.61	 2.15	 0	 0	 17	 1	 0	 69	 1	 1.1	 0.9;
	 106	 1	 3.42	 1.3	 0	 0	 17	 1	 0	 69	 1	 1.1	 0.9;
	 107	 1	 2.52	 1.57	 0	 0	 17	 1	 0	 138	 1	 1.1	 0.9;
	 108	 1	 2.82	 1.64	 0	 0	 17	 1	 0	 69	 1	 1.1	 0.9;
	 109	 1	 8.89	 4.05	 0	 0	 17	 1	 0	 69	 1	 1.1	 0.9;
	 110	 1	 9.08	 4.84	 0	 0	 17	 1	 0	 69	 1	 1.1	 0.9;
	 111	 1	 2.77	 1.9	 0	 0	 17	 1	 0	 69	 1	 1.1	 0.9;
	 112	 1	 3.01	 1.88	 0	 0	 17	 1	 0	 69	 1	 1.1	 0.9;
	 113	 1	 1.48	 1.01	 0	 0	 17	 1	 0	 69	 1	 1.1	 0.9;
	 114	 1	 2.16	 1.64	 0	 0	 17	 1	 0	 69	 1	 1.1	 0.9;
	 115	 1	 2.84	 2.18	 0	 0	 17	 1	 0	 69	 1	 1.1	 0.9;
	 116	 1	 1.66	 1.3	 0	 0	 17	 1	 0	 69	 1	 1.1	 0.9;
	 117	 1	 4.54	 2.69	 0	 0	 17	 1	 0	 69	 1	 1.1	 0.9;
	 118	 1	 4.1	 2.79	 0	 0	 17	 1	 0	 69	 1	 1.1	 0.9;
	 119	 1	 1.93	 1.58	 0	 0	 17	 1	 0	 69	 1	 1.1	 0.9;
	 120	 1	 6.57	 4.69	 0	 0	 17	 1	 0	 69	 1	 1.1	 0.9;
	 121	 1	 4.59	 3.39	 0	 0	 17	 1	 0	 69	 1	 1.1	 0.9;
	 122	 1	 0.77	 0.52	 0	 0	 17	 1	 0	 69	 1	 1.1	 0.9;
	 123	 1	 10.17	 5.57	 0	 0	 17	 1	 0	 69	 1	 1.1	 0.9;
	 124	 1	 0	 0	 0	 0	 17	 1	 0	 138	 1	 1.1	 0.9;
	 125	 1	 1.81	 1.16	 0	 0	 17	 1	 0	 69	 1	 1.1	 0.9;
	 126	 1	 1.12	 0.64	 0	 0	 17	 1	 0	 69	 1	 1.1	 0.9;
	 127	 1	 0.98	 0.76	 0	 0	 17	 1	 0	 69	 1	 1.1	 0.9;
	 128	 1	 0.85	 0.63	 0	 0	 17	 1	 0	 69	 1	 1.1	 0.9;
	 129	 1	 1.53	 0.84	 0	 0	 17	 1	 0	 69	 1	 1.1	 0.9;
	 130	 1	 7.97	 4.89	 0	 0	 17	 1	 0	 69	 1	 1.1	 0.9;
	 131	 1	 0	 0	 0	 0	 17	 1	 0	 138	 1	 1.1	 0.9;
	 132	 1	 1.16	 0.78	 0	 0	 17	 1	 0	 69	 1	 1.1	 0.9;
	 133	 1	 6.53	 4.04	 0	 0	 17	 1	 0	 69	 1	 1.1	 0.9;
	 134	 1	 3.13	 1.85	 0	 0	 17	 1	 0	 69	 1	 1.1	 0.9;
	 135	 1	 0	 0	 0	 0	 17	 1	 0	 138	 1	 1.1	 0.9;
	 136	 1	 2.05	 1.24	 0	 0	 17	 1	 0	 69	 1	 1.1	 0.9;
	 137	 1	 1.5	 1.18	 0	 0	 17	 1	 0	 69	 1	 1.1	 0.9;
	 138	 1	 7.56	 3.87	 0	 0	 17	 1	 0	 69	 1	 1.1	 0.9;
	 139	 1	 7.04	 4.58	 0	 0	 17	 1	 0	 69	 1	 1.1	 0.9;
	 140	 1	 4.72	 2.83	 0	 0	 17	 1	 0	 69	 1	 1.1	 0.9;
	 141	 1	 8.7	 5.26	 0	 0	 17	 1	 0	 69	 1	 1.1	 0.9;
	 142	 1	 1.47	 0.91	 0	 0	 17	 1	 0	 69	 1	 1.1	 0.9;
	 143	 1	 0	 0	 0	 0	 17	 1	 0	 138	 1	 1.1	 0.9;
	 144	 1	 0.85	 0.58	 0	 0	 17	 1	 0	 69	 1	 1.1	 0.9;
	 145	 1	 6.34	 4.12	 0	 0	 17	 1	 0	 69	 1	 1.1	 0.9;
	 146	 1	 3.2	 2.33	 0	 0	 17	 1	 0	 69	 1	 1.1	 0.9;
	 147	 1	 4.91	 3.63	 0	 0	 17	 1	 0	 69	 1	 1.1	 0.9;
	 148	 1	 0	 0	 0	 0	 17	 1	 0	 345	 1	 1.1	 0.9;
	 149	 1	 0	 0	 0	 0	 17	 1	 0	 138	 1	 1.1	 0.9;
	 150	 1	 0	 0	 0	 0	 17	 1	 0	 138	 1	 1.1	 0.9;
	 151	 1	 11.68	 8.3	 0	 0	 17	 1	 0	 69	 1	 1.1	 0.9;
	 152	 1	 3.22	 2.36	 0	 0	 17	 1	 0	 69	 1	 1.1	 0.9;
	 153	 1	 1.85	 1.43	 0	 0	 17	 1	 0	 69	 1	 1.1	 0.9;
	 154	 1	 2.91	 1.89	 0	 0	 17	 1	 0	 69	 1	 1.1	 0.9;
	 155	 1	 3.58	 1.93	 0	 0	 17	 1	 0	 69	 1	 1.1	 0.9;
	 156	 1	 7.48	 3.44	 0	 0	 17	 1	 0	 69	 1	 1.1	 0.9;
	 157	 1	 0	 0	 0	 0	 17	 1	 0	 138	 1	 1.1	 0.9;
	 158	 1	 6.51	 3.79	 0	 0	 17	 1	 0	 69	 1	 1.1	 0.9;
	 159	 1	 11.12	 5.33	 0	 0	 17	 1	 0	 69	 1	 1.1	 0.9;
	 160	 1	 7.56	 3.48	 0	 0	 17	 1	 0	 69	 1	 1.1	 0.9;
	 161	 1	 3.32	 2.2	 0	 0	 17	 1	 0	 69	 1	 1.1	 0.9;
	 162	 1	 1.89	 1.36	 0	 0	 17	 1	 0	 69	 1	 1.1	 0.9;
	 163	 1	 5.39	 3.17	 0	 0	 17	 1	 0	 69	 1	 1.1	 0.9;
	 164	 1	 2.67	 1.79	 0	 0	 17	 1	 0	 69	 1	 1.1	 0.9;
	 165	 1	 4.27	 2.58	 0	 0	 17	 1	 0	 69	 1	 1.1	 0.9;
	 166	 1	 9.13	 4.05	 0	 0	 17	 1	 0	 69	 1	 1.1	 0.9;
	 167	 1	 0	 0	 0	 0	 17	 1	 0	 138	 1	 1.1	 0.9;
	 168	 1	 5.28	 3.41	 0	 0	 17	 1	 0	 69	 1	 1.1	 0.9;
	 169	 1	 11.25	 6.14	 0	 0	 17	 1	 0	 69	 1	 1.1	 0.9;
	 170	 1	 1.5	 1.04	 0	 0	 17	 1	 0	 69	 1	 1.1	 0.9;
	 171	 1	 1.08	 0.85	 0	 0	 17	 1	 0	 69	 1	 1.1	 0.9;
	 172	 1	 0	 0	 0	 0	 17	 1	 0	 138	 1	 1.1	 0.9;
	 173	 1	 1.08	 0.8	 0	 0	 17	 1	 0	 69	 1	 1.1	 0.9;
	 174	 1	 1.71	 1.08	 0	 0	 17	 1	 0	 69	 1	 1.1	 0.9;
	 175	 1	 0	 0	 0	 0	 17	 1	 0	 138	 1	 1.1	 0.9;
	 176	 1	 2.1	 1.36	 0	 0	 17	 1	 0	 138	 1	 1.1	 0.9;
	 177	 1	 0.58	 0.41	 0	 0	 17	 1	 0	 69	 1	 1.1	 0.9;
	 178	 1	 0	 0	 0	 0	 17	 1	 0	 138	 1	 1.1	 0.9;
	 179	 1	 0	 0	 0	 0	 17	 1	 0	 138	 1	 1.1	 0.9;
	 180	 1	 1.76	 1.25	 0	 0	 17	 1	 0	 138	 1	 1.1	 0.9;
	 181	 1	 1.61	 1.31	 0	 0	 17	 1	 0	 69	 1	 1.1	 0.9;
	 182	 1	 0	 0	 0	 0	 17	 1	 0	 138	 1	 1.1	 0.9;
	 183	 1	 1.26	 0.84	 0	 0	 17	 1	 0	 69	 1	 1.1	 0.9;
	 184	 1	 0	 0	 0	 0	 17	 1	 0	 138	 1	 1.1	 0.9;
	 185	 1	 0	 0	 0	 0	 17	 1	 0	 138	 1	 1.1	 0.9;
	 186	 1	 0	 0	 0	 0	 17	 1	 0	 138	 1	 1.1	 0.9;
	 187	 1	 2.27	 1.59	 0	 0	 17	 1	 0	 69	 1	 1.1	 0.9;
	 188	 1	 2.15	 1.63	 0	 0	 17	 1	 0	 69	 1	 1.1	 0.9;
	 189	 1	 2.25	 1.3	 0	 0	 17	 1	 0	 138	 1	 1.1	 0.9;
	 190	 1	 2.72	 1.8	 0	 0	 17	 1	 0	 138	 1	 1.1	 0.9;
	 191	 1	 5.35	 3.1	 0	 0	 17	 1	 0	 69	 1	 1.1	 0.9;
	 192	 1	 1.75	 1.14	 0	 0	 17	 1	 0	 138	 1	 1.1	 0.9;
	 193	 1	 0	 0	 0	 0	 17	 1	 0	 138	 1	 1.1	 0.9;
	 194	 1	 0	 0	 0	 0	 17	 1	 0	 138	 1	 1.1	 0.9;
	 195	 1	 7.59	 4.31	 0	 0	 17	 1	 0	 138	 1	 1.1	 0.9;
	 196	 1	 1.55	 1.14	 0	 0	 17	 1	 0	 69	 1	 1.1	 0.9;
	 197	 1	 4.49	 2.79	 0	 0	 17	 1	 0	 138	 1	 1.1	 0.9;
	 198	 1	 0	 0	 0	 0	 17	 1	 0	 138	 1	 1.1	 0.9;
	 199	 1	 0	 0	 0	 0	 17	 1	 0	 138	 1	 1.1	 0.9;
	 200	 1	 0	 0	 0	 0	 17	 1	 0	 138	 1	 1.1	 0.9;
...
];

mpc_regionR2.gen = [
%	bus         Pg          Qg          Qmax        Qmin        Vg          mBase       status      Pmax        Pmin        Pc1         Pc2         Qc1min      Qc1max      Qc2min      Qc2max      ramp_agc    ramp_10     ramp_30     ramp_q      apf         
	 1	 459.1	 79.515	 364.43	-205.4	 1	 100	 1	 616.2	 302	 0	 0	 0	 0	 0	 0	 0	 0	 0	 0	 616.2;
	 1	 78.55	 12.5	 54	-29	 1	 100	 1	 87.1	 70	 0	 0	 0	 0	 0	 0	 0	 0	 0	 0	 87.1;
	 1	 78.55	 12.5	 54	-29	 1	 100	 1	 87.1	 70	 0	 0	 0	 0	 0	 0	 0	 0	 0	 0	 87.1;
	 1	 78.55	 12.5	 54	-29	 1	 100	 1	 87.1	 70	 0	 0	 0	 0	 0	 0	 0	 0	 0	 0	 87.1;
	 1	 78.55	 12.5	 54	-29	 1	 100	 1	 87.1	 70	 0	 0	 0	 0	 0	 0	 0	 0	 0	 0	 87.1;
	 1	 78.55	 12.5	 54	-29	 1	 100	 1	 87.1	 70	 0	 0	 0	 0	 0	 0	 0	 0	 0	 0	 87.1;
	 1	 78.55	 12.5	 54	-29	 1	 100	 1	 87.1	 70	 0	 0	 0	 0	 0	 0	 0	 0	 0	 0	 87.1;
	 1	 78.55	 12.5	 54	-29	 1	 100	 1	 87.1	 70	 0	 0	 0	 0	 0	 0	 0	 0	 0	 0	 87.1;
	 1	 78.55	 12.5	 54	-29	 1	 100	 1	 87.1	 70	 0	 0	 0	 0	 0	 0	 0	 0	 0	 0	 87.1;
	 1	 459.1	 79.515	 364.43	-205.4	 1	 100	 1	 616.2	 302	 0	 0	 0	 0	 0	 0	 0	 0	 0	 0	 616.2;
	 1	 459.1	 79.515	 364.43	-205.4	 1	 100	 1	 616.2	 302	 0	 0	 0	 0	 0	 0	 0	 0	 0	 0	 616.2;
	 1	 217.5	 30.95	 198.6	-136.7	 1	 100	 1	 410	 25	 0	 0	 0	 0	 0	 0	 0	 0	 0	 0	 410;
	 1	 210	 54.4	 235.5	-126.7	 1	 100	 1	 380	 40	 0	 0	 0	 0	 0	 0	 0	 0	 0	 0	 380;
	 1	 78.55	 12.5	 54	-29	 1	 100	 1	 87.1	 70	 0	 0	 0	 0	 0	 0	 0	 0	 0	 0	 87.1;
	 1	 78.55	 12.5	 54	-29	 1	 100	 1	 87.1	 70	 0	 0	 0	 0	 0	 0	 0	 0	 0	 0	 87.1;
	 1	 78.55	 12.5	 54	-29	 1	 100	 1	 87.1	 70	 0	 0	 0	 0	 0	 0	 0	 0	 0	 0	 87.1;
	 1	 78.55	 12.5	 54	-29	 1	 100	 1	 87.1	 70	 0	 0	 0	 0	 0	 0	 0	 0	 0	 0	 87.1;
	 2	 19.3	 4.8	 20.8	-11.2	 1	 100	 1	 33.6	 5	 0	 0	 0	 0	 0	 0	 0	 0	 0	 0	 33.6;
	 2	 14.195	 3.185	 14.6	-8.23	 1	 100	 1	 24.71	 3.68	 0	 0	 0	 0	 0	 0	 0	 0	 0	 0	 24.7111;
	 2	 14.195	 3.185	 14.6	-8.23	 1	 100	 1	 24.71	 3.68	 0	 0	 0	 0	 0	 0	 0	 0	 0	 0	 24.7111;
	 2	 14.195	 3.185	 14.6	-8.23	 1	 100	 1	 24.71	 3.68	 0	 0	 0	 0	 0	 0	 0	 0	 0	 0	 24.7111;
	 2	 14.195	 3.185	 14.6	-8.23	 1	 100	 1	 24.71	 3.68	 0	 0	 0	 0	 0	 0	 0	 0	 0	 0	 24.7111;
	 2	 19.3	 4.8	 20.8	-11.2	 1	 100	 1	 33.6	 5	 0	 0	 0	 0	 0	 0	 0	 0	 0	 0	 33.6;
	 2	 19.3	 4.8	 20.8	-11.2	 1	 100	 1	 33.6	 5	 0	 0	 0	 0	 0	 0	 0	 0	 0	 0	 33.6;
	 2	 19.3	 4.8	 20.8	-11.2	 1	 100	 1	 33.6	 5	 0	 0	 0	 0	 0	 0	 0	 0	 0	 0	 33.6;
	 2	 14.195	 3.185	 14.6	-8.23	 1	 100	 1	 24.71	 3.68	 0	 0	 0	 0	 0	 0	 0	 0	 0	 0	 24.7111;
	 2	 14.195	 3.185	 14.6	-8.23	 1	 100	 1	 24.71	 3.68	 0	 0	 0	 0	 0	 0	 0	 0	 0	 0	 24.7111;
	 2	 14.195	 3.185	 14.6	-8.23	 1	 100	 1	 24.71	 3.68	 0	 0	 0	 0	 0	 0	 0	 0	 0	 0	 24.7111;
	 2	 14.195	 3.185	 14.6	-8.23	 1	 100	 1	 24.71	 3.68	 0	 0	 0	 0	 0	 0	 0	 0	 0	 0	 24.7111;
	 2	 14.195	 3.185	 14.6	-8.23	 1	 100	 1	 24.71	 3.68	 0	 0	 0	 0	 0	 0	 0	 0	 0	 0	 24.7111;
	 3	 113.15	 22.4	 96.9	-52.1	 1	 100	 1	 156.3	 70	 0	 0	 0	 0	 0	 0	 0	 0	 0	 0	 156.3;
	 3	 113.15	 22.4	 96.9	-52.1	 1	 100	 1	 156.3	 70	 0	 0	 0	 0	 0	 0	 0	 0	 0	 0	 156.3;
	 4	 103	 19.5	 84.3	-45.3	 1	 100	 1	 136	 70	 0	 0	 0	 0	 0	 0	 0	 0	 0	 0	 136;
	 4	 103	 19.5	 84.3	-45.3	 1	 100	 1	 136	 70	 0	 0	 0	 0	 0	 0	 0	 0	 0	 0	 136;
	 4	 100.5	 19.5	 84.3	-45.3	 1	 100	 1	 136	 65	 0	 0	 0	 0	 0	 0	 0	 0	 0	 0	 136;
	 4	 100.5	 19.5	 84.3	-45.3	 1	 100	 1	 136	 65	 0	 0	 0	 0	 0	 0	 0	 0	 0	 0	 136;
	 4	 376.25	 99.2	 429.2	-230.8	 1	 100	 1	 692.5	 60	 0	 0	 0	 0	 0	 0	 0	 0	 0	 0	 692.5;
	 4	 384.9	 101.65	 439.9	-236.6	 1	 100	 1	 709.8	 60	 0	 0	 0	 0	 0	 0	 0	 0	 0	 0	 709.8;
	 5	 84.095	 22.7	 85.7	-40.3	 1	 100	 1	 121	 47.19	 0	 0	 0	 0	 0	 0	 0	 0	 0	 0	 121;
	 7	 485.2	 61.55	 394.9	-271.8	 1	 100	 1	 815.4	 155	 0	 0	 0	 0	 0	 0	 0	 0	 0	 0	 815.4;
	 7	 48.65	 12.25	 52.9	-28.4	 1	 100	 1	 85.3	 12	 0	 0	 0	 0	 0	 0	 0	 0	 0	 0	 85.3;
	 7	 48.65	 12.25	 52.9	-28.4	 1	 100	 1	 85.3	 12	 0	 0	 0	 0	 0	 0	 0	 0	 0	 0	 85.3;
	 7	 48.65	 12.25	 52.9	-28.4	 1	 100	 1	 85.3	 12	 0	 0	 0	 0	 0	 0	 0	 0	 0	 0	 85.3;
	 8	 12	 1.86	 9.06	-5.34	 1	 100	 1	 16	 8	 0	 0	 0	 0	 0	 0	 0	 0	 0	 0	 16;
	 8	 12	 1.86	 9.06	-5.34	 1	 100	 1	 16	 8	 0	 0	 0	 0	 0	 0	 0	 0	 0	 0	 16;
	 8	 12	 1.86	 9.06	-5.34	 1	 100	 1	 16	 8	 0	 0	 0	 0	 0	 0	 0	 0	 0	 0	 16;
	 8	 12	 1.86	 9.06	-5.34	 1	 100	 1	 16	 8	 0	 0	 0	 0	 0	 0	 0	 0	 0	 0	 16;
	 8	 12	 1.86	 9.06	-5.34	 1	 100	 1	 16	 8	 0	 0	 0	 0	 0	 0	 0	 0	 0	 0	 16;
	 9	 34.95	 0	 27.3	-27.3	 1	 100	 1	 69	 0.9	 0	 0	 0	 0	 0	 0	 0	 0	 0	 0	 0;
	 10	 40.25	 8.65	 37.5	-20.2	 1	 100	 1	 60.5	 20	 0	 0	 0	 0	 0	 0	 0	 0	 0	 0	 60.5;
	 12	 26.85	 0	 20.9	-20.9	 1	 100	 1	 52.8	 0.9	 0	 0	 0	 0	 0	 0	 0	 0	 0	 0	 0;
	 13	 6.07	 1.68	 6.5	-3.14	 1	 100	 1	 9.44	 2.7	 0	 0	 0	 0	 0	 0	 0	 0	 0	 0	 9.44;
	 13	 6.07	 1.68	 6.5	-3.14	 1	 100	 1	 9.44	 2.7	 0	 0	 0	 0	 0	 0	 0	 0	 0	 0	 9.44;
	 13	 6.07	 1.68	 6.5	-3.14	 1	 100	 1	 9.44	 2.7	 0	 0	 0	 0	 0	 0	 0	 0	 0	 0	 9.44;
	 13	 6.07	 1.68	 6.5	-3.14	 1	 100	 1	 9.44	 2.7	 0	 0	 0	 0	 0	 0	 0	 0	 0	 0	 9.44;
	 13	 6.07	 1.68	 6.5	-3.14	 1	 100	 1	 9.44	 2.7	 0	 0	 0	 0	 0	 0	 0	 0	 0	 0	 9.44;
	 15	 35.4	 6.1	 26.3	-14.1	 1	 100	 1	 42.4	 28.4	 0	 0	 0	 0	 0	 0	 0	 0	 0	 0	 42.4;
	 15	 34.6	 6.1	 26.3	-14.1	 1	 100	 1	 42.4	 26.8	 0	 0	 0	 0	 0	 0	 0	 0	 0	 0	 42.4;
	 15	 34.05	 6.15	 26.6	-14.3	 1	 100	 1	 42.9	 25.2	 0	 0	 0	 0	 0	 0	 0	 0	 0	 0	 42.9;
	 15	 33.4	 6.1	 26.3	-14.1	 1	 100	 1	 42.4	 24.4	 0	 0	 0	 0	 0	 0	 0	 0	 0	 0	 42.4;
	 17	 24.75	 5.65	 24.5	-13.2	 1	 100	 1	 39.5	 10	 0	 0	 0	 0	 0	 0	 0	 0	 0	 0	 39.5;
	 18	 24	 5.45	 23.6	-12.7	 1	 100	 1	 38	 10	 0	 0	 0	 0	 0	 0	 0	 0	 0	 0	 38;
	 20	 16.5	 5.85	 21	-9.3	 1	 100	 1	 28	 5	 0	 0	 0	 0	 0	 0	 0	 0	 0	 0	 28;
	 21	 4.255	 0.915	 3.93	-2.1	 1	 100	 1	 6.3	 2.21	 0	 0	 0	 0	 0	 0	 0	 0	 0	 0	 6.3;
	 21	 4.255	 0.915	 3.93	-2.1	 1	 100	 1	 6.3	 2.21	 0	 0	 0	 0	 0	 0	 0	 0	 0	 0	 6.3;
	 21	 4.255	 0.915	 3.93	-2.1	 1	 100	 1	 6.3	 2.21	 0	 0	 0	 0	 0	 0	 0	 0	 0	 0	 6.3;
	 21	 4.255	 0.915	 3.93	-2.1	 1	 100	 1	 6.3	 2.21	 0	 0	 0	 0	 0	 0	 0	 0	 0	 0	 6.3;
	 21	 13.15	 3.05	 13.2	-7.1	 1	 100	 1	 21.3	 5	 0	 0	 0	 0	 0	 0	 0	 0	 0	 0	 21.3;
	 22	 22	 3.6	 15.5	-8.3	 1	 100	 1	 25	 19	 0	 0	 0	 0	 0	 0	 0	 0	 0	 0	 25;
	 22	 22	 3.6	 15.5	-8.3	 1	 100	 1	 25	 19	 0	 0	 0	 0	 0	 0	 0	 0	 0	 0	 25;
	 23	 14.5	 0	 7.9	-7.9	 1	 100	 1	 24	 5	 0	 0	 0	 0	 0	 0	 0	 0	 0	 0	 24;
	 24	 4.34	 0.42	 2.42	-1.58	 1	 100	 1	 4.74	 3.94	 0	 0	 0	 0	 0	 0	 0	 0	 0	 0	 4.74;
	 24	 4.34	 0.42	 2.42	-1.58	 1	 100	 1	 4.74	 3.94	 0	 0	 0	 0	 0	 0	 0	 0	 0	 0	 4.74;
	 24	 4.34	 0.42	 2.42	-1.58	 1	 100	 1	 4.74	 3.94	 0	 0	 0	 0	 0	 0	 0	 0	 0	 0	 4.74;
	 24	 4.34	 0.42	 2.42	-1.58	 1	 100	 1	 4.74	 3.94	 0	 0	 0	 0	 0	 0	 0	 0	 0	 0	 4.74;
	 24	 4.34	 0.42	 2.42	-1.58	 1	 100	 1	 4.74	 3.94	 0	 0	 0	 0	 0	 0	 0	 0	 0	 0	 4.74;
	 26	 7.75	 1.65	 7.15	-3.85	 1	 100	 1	 11.5	 4	 0	 0	 0	 0	 0	 0	 0	 0	 0	 0	 11.5;
	 26	 7.75	 1.65	 7.15	-3.85	 1	 100	 1	 11.5	 4	 0	 0	 0	 0	 0	 0	 0	 0	 0	 0	 11.5;
	 27	 13.8	 1.7	 10.9	-7.5	 1	 100	 1	 22.6	 5	 0	 0	 0	 0	 0	 0	 0	 0	 0	 0	 22.6;
	 29	 3.35	 0	 2.2	-2.2	 1	 100	 1	 6.7	 0	 0	 0	 0	 0	 0	 0	 0	 0	 0	 0	 6.7;
	 29	 3.35	 0	 2.2	-2.2	 1	 100	 1	 6.7	 0	 0	 0	 0	 0	 0	 0	 0	 0	 0	 0	 6.7;
	 29	 3.35	 0	 2.2	-2.2	 1	 100	 1	 6.7	 0	 0	 0	 0	 0	 0	 0	 0	 0	 0	 0	 6.7;
	 30	 12.5	 4.15	 15	-6.7	 1	 100	 1	 20	 5	 0	 0	 0	 0	 0	 0	 0	 0	 0	 0	 20;
	 31	 13	 1.5	 9.7	-6.7	 1	 100	 1	 20	 6	 0	 0	 0	 0	 0	 0	 0	 0	 0	 0	 20;
	 31	 13	 1.5	 9.7	-6.7	 1	 100	 1	 20	 6	 0	 0	 0	 0	 0	 0	 0	 0	 0	 0	 20;
	 31	 13	 1.5	 9.7	-6.7	 1	 100	 1	 20	 6	 0	 0	 0	 0	 0	 0	 0	 0	 0	 0	 20;
	 32	 14	 2.85	 12.4	-6.7	 1	 100	 1	 20	 8	 0	 0	 0	 0	 0	 0	 0	 0	 0	 0	 20;
	 691	 73.5	 6.8	 43.6	-30	 1	 100	 1	 90	 57	 0	 0	 0	 0	 0	 0	 0	 0	 0	 0	 90;
	 691	 73.5	 6.8	 43.6	-30	 1	 100	 1	 90	 57	 0	 0	 0	 0	 0	 0	 0	 0	 0	 0	 90;
	 691	 73.5	 6.8	 43.6	-30	 1	 100	 1	 90	 57	 0	 0	 0	 0	 0	 0	 0	 0	 0	 0	 90;
	 691	 60	 6.8	 43.6	-30	 1	 100	 1	 90	 30	 0	 0	 0	 0	 0	 0	 0	 0	 0	 0	 90;
	 691	 60	 6.8	 43.6	-30	 1	 100	 1	 90	 30	 0	 0	 0	 0	 0	 0	 0	 0	 0	 0	 90;
	 696	 30	 0	 23.7	-23.7	 1	 100	 1	 60	 0	 0	 0	 0	 0	 0	 0	 0	 0	 0	 0	 0;
	 697	 27	 3.3	 21.3	-14.7	 1	 100	 1	 44	 10	 0	 0	 0	 0	 0	 0	 0	 0	 0	 0	 44;
	 699	 0.485	 0.045	 0.28	-0.19	 1	 100	 1	 0.57	 0.4	 0	 0	 0	 0	 0	 0	 0	 0	 0	 0	 0.5726;
	 699	 0.485	 0.045	 0.28	-0.19	 1	 100	 1	 0.57	 0.4	 0	 0	 0	 0	 0	 0	 0	 0	 0	 0	 0.5726;
	 699	 0.485	 0.045	 0.28	-0.19	 1	 100	 1	 0.57	 0.4	 0	 0	 0	 0	 0	 0	 0	 0	 0	 0	 0.5726;
	 699	 0.485	 0.045	 0.28	-0.19	 1	 100	 1	 0.57	 0.4	 0	 0	 0	 0	 0	 0	 0	 0	 0	 0	 0.5726;
	 699	 0.485	 0.045	 0.28	-0.19	 1	 100	 1	 0.57	 0.4	 0	 0	 0	 0	 0	 0	 0	 0	 0	 0	 0.5726;
	 699	 0.485	 0.045	 0.28	-0.19	 1	 100	 1	 0.57	 0.4	 0	 0	 0	 0	 0	 0	 0	 0	 0	 0	 0.5726;
	 699	 0.485	 0.045	 0.28	-0.19	 1	 100	 1	 0.57	 0.4	 0	 0	 0	 0	 0	 0	 0	 0	 0	 0	 0.5726;
	 699	 0.485	 0.045	 0.28	-0.19	 1	 100	 1	 0.57	 0.4	 0	 0	 0	 0	 0	 0	 0	 0	 0	 0	 0.5726;
	 699	 0.485	 0.045	 0.28	-0.19	 1	 100	 1	 0.57	 0.4	 0	 0	 0	 0	 0	 0	 0	 0	 0	 0	 0.5726;
	 699	 0.485	 0.045	 0.28	-0.19	 1	 100	 1	 0.57	 0.4	 0	 0	 0	 0	 0	 0	 0	 0	 0	 0	 0.5726;
	 699	 0.485	 0.045	 0.28	-0.19	 1	 100	 1	 0.57	 0.4	 0	 0	 0	 0	 0	 0	 0	 0	 0	 0	 0.5726;
	 699	 0.485	 0.045	 0.28	-0.19	 1	 100	 1	 0.57	 0.4	 0	 0	 0	 0	 0	 0	 0	 0	 0	 0	 0.5726;
	 699	 0.485	 0.045	 0.28	-0.19	 1	 100	 1	 0.57	 0.4	 0	 0	 0	 0	 0	 0	 0	 0	 0	 0	 0.5726;
	 699	 0.485	 0.045	 0.28	-0.19	 1	 100	 1	 0.57	 0.4	 0	 0	 0	 0	 0	 0	 0	 0	 0	 0	 0.5726;
	 699	 0.485	 0.045	 0.28	-0.19	 1	 100	 1	 0.57	 0.4	 0	 0	 0	 0	 0	 0	 0	 0	 0	 0	 0.5726;
	 699	 0.485	 0.045	 0.28	-0.19	 1	 100	 1	 0.57	 0.4	 0	 0	 0	 0	 0	 0	 0	 0	 0	 0	 0.5726;
	 699	 0.485	 0.045	 0.28	-0.19	 1	 100	 1	 0.57	 0.4	 0	 0	 0	 0	 0	 0	 0	 0	 0	 0	 0.5726;
	 699	 0.485	 0.045	 0.28	-0.19	 1	 100	 1	 0.57	 0.4	 0	 0	 0	 0	 0	 0	 0	 0	 0	 0	 0.5726;
	 699	 0.485	 0.045	 0.28	-0.19	 1	 100	 1	 0.57	 0.4	 0	 0	 0	 0	 0	 0	 0	 0	 0	 0	 0.5726;
	 699	 0.485	 0.045	 0.28	-0.19	 1	 100	 1	 0.57	 0.4	 0	 0	 0	 0	 0	 0	 0	 0	 0	 0	 0.5726;
	 699	 0.485	 0.045	 0.28	-0.19	 1	 100	 1	 0.57	 0.4	 0	 0	 0	 0	 0	 0	 0	 0	 0	 0	 0.5726;
	 699	 0.485	 0.045	 0.28	-0.19	 1	 100	 1	 0.57	 0.4	 0	 0	 0	 0	 0	 0	 0	 0	 0	 0	 0.5726;
	 699	 0.485	 0.045	 0.28	-0.19	 1	 100	 1	 0.57	 0.4	 0	 0	 0	 0	 0	 0	 0	 0	 0	 0	 0.5726;
	 699	 0.485	 0.045	 0.28	-0.19	 1	 100	 1	 0.57	 0.4	 0	 0	 0	 0	 0	 0	 0	 0	 0	 0	 0.5726;
	 699	 0.485	 0.045	 0.28	-0.19	 1	 100	 1	 0.57	 0.4	 0	 0	 0	 0	 0	 0	 0	 0	 0	 0	 0.5726;
	 699	 0.485	 0.045	 0.28	-0.19	 1	 100	 1	 0.57	 0.4	 0	 0	 0	 0	 0	 0	 0	 0	 0	 0	 0.5726;
	 699	 0.485	 0.045	 0.28	-0.19	 1	 100	 1	 0.57	 0.4	 0	 0	 0	 0	 0	 0	 0	 0	 0	 0	 0.5726;
	 699	 0.485	 0.045	 0.28	-0.19	 1	 100	 1	 0.57	 0.4	 0	 0	 0	 0	 0	 0	 0	 0	 0	 0	 0.5726;
	 699	 0.485	 0.045	 0.28	-0.19	 1	 100	 1	 0.57	 0.4	 0	 0	 0	 0	 0	 0	 0	 0	 0	 0	 0.5726;
	 699	 0.485	 0.045	 0.28	-0.19	 1	 100	 1	 0.57	 0.4	 0	 0	 0	 0	 0	 0	 0	 0	 0	 0	 0.5726;
	 699	 0.485	 0.045	 0.28	-0.19	 1	 100	 1	 0.57	 0.4	 0	 0	 0	 0	 0	 0	 0	 0	 0	 0	 0.5726;
	 699	 0.485	 0.045	 0.28	-0.19	 1	 100	 1	 0.57	 0.4	 0	 0	 0	 0	 0	 0	 0	 0	 0	 0	 0.5726;
	 699	 0.485	 0.045	 0.28	-0.19	 1	 100	 1	 0.57	 0.4	 0	 0	 0	 0	 0	 0	 0	 0	 0	 0	 0.5726;
	 699	 0.485	 0.045	 0.28	-0.19	 1	 100	 1	 0.57	 0.4	 0	 0	 0	 0	 0	 0	 0	 0	 0	 0	 0.5726;
	 699	 0.485	 0.045	 0.28	-0.19	 1	 100	 1	 0.57	 0.4	 0	 0	 0	 0	 0	 0	 0	 0	 0	 0	 0.5726;
	 699	 0.485	 0.045	 0.28	-0.19	 1	 100	 1	 0.57	 0.4	 0	 0	 0	 0	 0	 0	 0	 0	 0	 0	 0.5726;
	 699	 0.485	 0.045	 0.28	-0.19	 1	 100	 1	 0.57	 0.4	 0	 0	 0	 0	 0	 0	 0	 0	 0	 0	 0.5726;
	 699	 0.485	 0.045	 0.28	-0.19	 1	 100	 1	 0.57	 0.4	 0	 0	 0	 0	 0	 0	 0	 0	 0	 0	 0.5726;
	 699	 0.485	 0.045	 0.28	-0.19	 1	 100	 1	 0.57	 0.4	 0	 0	 0	 0	 0	 0	 0	 0	 0	 0	 0.5726;
	 699	 0.485	 0.045	 0.28	-0.19	 1	 100	 1	 0.57	 0.4	 0	 0	 0	 0	 0	 0	 0	 0	 0	 0	 0.5726;
	 699	 0.485	 0.045	 0.28	-0.19	 1	 100	 1	 0.57	 0.4	 0	 0	 0	 0	 0	 0	 0	 0	 0	 0	 0.5726;
	 699	 0.485	 0.045	 0.28	-0.19	 1	 100	 1	 0.57	 0.4	 0	 0	 0	 0	 0	 0	 0	 0	 0	 0	 0.5726;
	 699	 0.485	 0.045	 0.28	-0.19	 1	 100	 1	 0.57	 0.4	 0	 0	 0	 0	 0	 0	 0	 0	 0	 0	 0.5726;
	 699	 0.485	 0.045	 0.28	-0.19	 1	 100	 1	 0.57	 0.4	 0	 0	 0	 0	 0	 0	 0	 0	 0	 0	 0.5726;
	 699	 0.485	 0.045	 0.28	-0.19	 1	 100	 1	 0.57	 0.4	 0	 0	 0	 0	 0	 0	 0	 0	 0	 0	 0.5726;
	 699	 0.485	 0.045	 0.28	-0.19	 1	 100	 1	 0.57	 0.4	 0	 0	 0	 0	 0	 0	 0	 0	 0	 0	 0.5726;
	 699	 0.485	 0.045	 0.28	-0.19	 1	 100	 1	 0.57	 0.4	 0	 0	 0	 0	 0	 0	 0	 0	 0	 0	 0.5726;
	 699	 0.485	 0.045	 0.28	-0.19	 1	 100	 1	 0.57	 0.4	 0	 0	 0	 0	 0	 0	 0	 0	 0	 0	 0.5726;
	 699	 0.485	 0.045	 0.28	-0.19	 1	 100	 1	 0.57	 0.4	 0	 0	 0	 0	 0	 0	 0	 0	 0	 0	 0.5726;
	 699	 0.485	 0.045	 0.28	-0.19	 1	 100	 1	 0.57	 0.4	 0	 0	 0	 0	 0	 0	 0	 0	 0	 0	 0.5726;
	 699	 0.485	 0.045	 0.28	-0.19	 1	 100	 1	 0.57	 0.4	 0	 0	 0	 0	 0	 0	 0	 0	 0	 0	 0.5726;
	 699	 0.485	 0.045	 0.28	-0.19	 1	 100	 1	 0.57	 0.4	 0	 0	 0	 0	 0	 0	 0	 0	 0	 0	 0.5726;
	 699	 0.485	 0.045	 0.28	-0.19	 1	 100	 1	 0.57	 0.4	 0	 0	 0	 0	 0	 0	 0	 0	 0	 0	 0.5726;
	 699	 0.485	 0.045	 0.28	-0.19	 1	 100	 1	 0.57	 0.4	 0	 0	 0	 0	 0	 0	 0	 0	 0	 0	 0.5726;
	 699	 0.485	 0.045	 0.28	-0.19	 1	 100	 1	 0.57	 0.4	 0	 0	 0	 0	 0	 0	 0	 0	 0	 0	 0.5726;
	 699	 0.485	 0.045	 0.28	-0.19	 1	 100	 1	 0.57	 0.4	 0	 0	 0	 0	 0	 0	 0	 0	 0	 0	 0.5726;
	 699	 0.485	 0.045	 0.28	-0.19	 1	 100	 1	 0.57	 0.4	 0	 0	 0	 0	 0	 0	 0	 0	 0	 0	 0.5726;
	 699	 0.485	 0.045	 0.28	-0.19	 1	 100	 1	 0.57	 0.4	 0	 0	 0	 0	 0	 0	 0	 0	 0	 0	 0.5726;
	 699	 0.485	 0.045	 0.28	-0.19	 1	 100	 1	 0.57	 0.4	 0	 0	 0	 0	 0	 0	 0	 0	 0	 0	 0.5726;
	 699	 0.485	 0.045	 0.28	-0.19	 1	 100	 1	 0.57	 0.4	 0	 0	 0	 0	 0	 0	 0	 0	 0	 0	 0.5726;
	 699	 0.485	 0.045	 0.28	-0.19	 1	 100	 1	 0.57	 0.4	 0	 0	 0	 0	 0	 0	 0	 0	 0	 0	 0.5726;
	 699	 0.485	 0.045	 0.28	-0.19	 1	 100	 1	 0.57	 0.4	 0	 0	 0	 0	 0	 0	 0	 0	 0	 0	 0.5726;
	 699	 0.485	 0.045	 0.28	-0.19	 1	 100	 1	 0.57	 0.4	 0	 0	 0	 0	 0	 0	 0	 0	 0	 0	 0.5726;
	 699	 0.485	 0.045	 0.28	-0.19	 1	 100	 1	 0.57	 0.4	 0	 0	 0	 0	 0	 0	 0	 0	 0	 0	 0.5726;
	 699	 0.485	 0.045	 0.28	-0.19	 1	 100	 1	 0.57	 0.4	 0	 0	 0	 0	 0	 0	 0	 0	 0	 0	 0.5726;
	 699	 0.485	 0.045	 0.28	-0.19	 1	 100	 1	 0.57	 0.4	 0	 0	 0	 0	 0	 0	 0	 0	 0	 0	 0.5726;
	 699	 0.485	 0.045	 0.28	-0.19	 1	 100	 1	 0.57	 0.4	 0	 0	 0	 0	 0	 0	 0	 0	 0	 0	 0.5726;
	 699	 0.485	 0.045	 0.28	-0.19	 1	 100	 1	 0.57	 0.4	 0	 0	 0	 0	 0	 0	 0	 0	 0	 0	 0.5726;
	 699	 0.485	 0.045	 0.28	-0.19	 1	 100	 1	 0.57	 0.4	 0	 0	 0	 0	 0	 0	 0	 0	 0	 0	 0.5726;
	 699	 0.485	 0.045	 0.28	-0.19	 1	 100	 1	 0.57	 0.4	 0	 0	 0	 0	 0	 0	 0	 0	 0	 0	 0.5726;
	 699	 0.485	 0.045	 0.28	-0.19	 1	 100	 1	 0.57	 0.4	 0	 0	 0	 0	 0	 0	 0	 0	 0	 0	 0.5726;
	 699	 0.485	 0.045	 0.28	-0.19	 1	 100	 1	 0.57	 0.4	 0	 0	 0	 0	 0	 0	 0	 0	 0	 0	 0.5726;
	 699	 0.485	 0.045	 0.28	-0.19	 1	 100	 1	 0.57	 0.4	 0	 0	 0	 0	 0	 0	 0	 0	 0	 0	 0.5726;
	 701	 32.9	 0	 5.5	-5.5	 1	 100	 1	 38.6	 27.2	 0	 0	 0	 0	 0	 0	 0	 0	 0	 0	 38.6;
	 701	 25.95	 0	 8.7	-8.7	 1	 100	 1	 29.8	 22.1	 0	 0	 0	 0	 0	 0	 0	 0	 0	 0	 29.8;
	 701	 49.5	 4.1	 26.2	-18	 1	 100	 1	 54	 45	 0	 0	 0	 0	 0	 0	 0	 0	 0	 0	 54;
	 702	 17.55	 4.9	 17.6	-7.8	 1	 100	 1	 23.4	 11.7	 0	 0	 0	 0	 0	 0	 0	 0	 0	 0	 23.4;
	 702	 17.55	 4.9	 17.6	-7.8	 1	 100	 1	 23.4	 11.7	 0	 0	 0	 0	 0	 0	 0	 0	 0	 0	 23.4;
	 702	 17.55	 4.9	 17.6	-7.8	 1	 100	 1	 23.4	 11.7	 0	 0	 0	 0	 0	 0	 0	 0	 0	 0	 23.4;
	 703	 30	 6.3	 27.3	-14.7	 1	 100	 1	 44	 16	 0	 0	 0	 0	 0	 0	 0	 0	 0	 0	 44;
	 703	 13	 3	 13	-7	 1	 100	 1	 21	 5	 0	 0	 0	 0	 0	 0	 0	 0	 0	 0	 21;
];

mpc_regionR2.branch = [
%	fbus        tbus        r           x           b           rateA       rateB       rateC       ratio       angle       status      angmin      angmax      
	 1	 38	 0.001112	 0.023692	 8.8332	 3601	 3781.1	 3961.1	 0	 0	 1	-30	 30;
	 1	 492	 8e-06	 0.000162	 0.05715	 3601	 3781.1	 3961.1	 0	 0	 1	-30	 30;
	 1	 684	 0.000136	 0.010888	 0	 1800	 1800	 1800	 1	 0	 1	-30	 30;
	 1	 684	 0.000136	 0.010888	 0	 1800	 1800	 1800	 1	 0	 1	-30	 30;
	 2	 264	 0.001523	 0.010565	 0.00302	 230	 241.5	 253	 0	 0	 1	-30	 30;
	 2	 266	 0.002524	 0.021227	 0.00629	 261	 274	 287.1	 0	 0	 1	-30	 30;
	 2	 687	 0.00142	 0.062484	 0	 200	 200	 200	 1	 0	 1	-30	 30;
	 2	 687	 0.00142	 0.062484	 0	 200	 200	 200	 1	 0	 1	-30	 30;
	 3	 4	 2.3e-05	 0.000275	 0.00272	 792	 831.6	 871.2	 0	 0	 1	-30	 30;
	 3	 612	 0.000693	 0.007564	 0.07427	 736	 772.8	 809.6	 0	 0	 1	-30	 30;
	 3	 688	 0.001184	 0.059188	 0	 250	 250	 250	 1	 0	 1	-30	 30;
	 3	 688	 0.001184	 0.059188	 0	 250	 250	 250	 1	 0	 1	-30	 30;
	 4	 75	 0.000194	 0.002236	 0.0196	 736	 772.8	 809.6	 0	 0	 1	-30	 30;
	 4	 82	 0.000125	 0.001436	 0.01407	 768	 806.4	 844.8	 0	 0	 1	-30	 30;
	 4	 399	 0.001557	 0.024876	 0.405	 1419	 1489.9	 1560.9	 0	 0	 1	-30	 30;
	 4	 689	 0.000176	 0.014094	 0	 1050	 1050	 1050	 1	 0	 1	-30	 30;
	 4	 689	 0.000176	 0.014094	 0	 1050	 1050	 1050	 1	 0	 1	-30	 30;
	 5	 356	 0.002185	 0.0227	 0.00702	 307	 322.4	 337.7	 0	 0	 1	-30	 30;
	 5	 690	 0.003471	 0.12495	 0	 100	 100	 100	 1	 0	 1	-30	 30;
	 5	 690	 0.003471	 0.12495	 0	 100	 100	 100	 1	 0	 1	-30	 30;
	 6	 38	 0.000293	 0.006094	 2.1146	 3601	 3781.1	 3961.1	 0	 0	 1	-30	 30;
	 6	 691	 0.000213	 0.017042	 0	 1150	 1150	 1150	 0.975	 0	 1	-30	 30;
	 6	 691	 0.000213	 0.017042	 0	 1150	 1150	 1150	 0.975	 0	 1	-30	 30;
	 7	 616	 0.002627	 0.036392	 0.36449	 868	 911.4	 954.8	 0	 0	 1	-30	 30;
	 8	 559	 0.007945	 0.046147	 0.01087	 193	 202.6	 212.3	 0	 0	 1	-30	 30;
	 8	 561	 0.001576	 0.003797	 0.00107	 118	 123.9	 129.8	 0	 0	 1	-30	 30;
	 8	 694	 0.003471	 0.12495	 0	 100	 100	 100	 1	 0	 1	-30	 30;
	 8	 694	 0.003471	 0.12495	 0	 100	 100	 100	 1	 0	 1	-30	 30;
	 9	 356	 0.022832	 0.053008	 0.01615	 118	 123.9	 129.8	 0	 0	 1	-30	 30;
	 9	 645	 0.029727	 0.10365	 0.02405	 142	 149.1	 156.2	 0	 0	 1	-30	 30;
	 9	 695	 0.00806	 0.24987	 0	 50	 50	 50	 1	 0	 1	-30	 30;
	 9	 695	 0.00806	 0.24987	 0	 50	 50	 50	 1	 0	 1	-30	 30;
...